*SPEF "ieee 1481-1999"
*DESIGN "user_project_wrapper"
*DATE "11:11:11 Fri 11 11, 1111"
*VENDOR "OpenRCX"
*PROGRAM "Parallel Extraction"
*VERSION "1.0"
*DESIGN_FLOW "NAME_SCOPE LOCAL" "PIN_CAP NONE"
*DIVIDER /
*DELIMITER :
*BUS_DELIMITER []
*T_UNIT 1 NS
*C_UNIT 1 PF
*R_UNIT 1 OHM
*L_UNIT 1 HENRY

*NAME_MAP
*1 la_data_in[0]
*2 la_data_in[100]
*3 la_data_in[101]
*4 la_data_in[102]
*5 la_data_in[103]
*6 la_data_in[104]
*7 la_data_in[105]
*8 la_data_in[106]
*9 la_data_in[107]
*10 la_data_in[108]
*11 la_data_in[109]
*12 la_data_in[10]
*13 la_data_in[110]
*14 la_data_in[111]
*15 la_data_in[112]
*16 la_data_in[113]
*17 la_data_in[114]
*18 la_data_in[115]
*19 la_data_in[116]
*20 la_data_in[117]
*21 la_data_in[118]
*22 la_data_in[119]
*23 la_data_in[11]
*24 la_data_in[120]
*25 la_data_in[121]
*26 la_data_in[122]
*27 la_data_in[123]
*28 la_data_in[124]
*29 la_data_in[125]
*30 la_data_in[126]
*31 la_data_in[127]
*32 la_data_in[12]
*33 la_data_in[13]
*34 la_data_in[14]
*35 la_data_in[15]
*36 la_data_in[16]
*37 la_data_in[17]
*38 la_data_in[18]
*39 la_data_in[19]
*40 la_data_in[1]
*41 la_data_in[20]
*42 la_data_in[21]
*43 la_data_in[22]
*44 la_data_in[23]
*45 la_data_in[24]
*46 la_data_in[25]
*47 la_data_in[26]
*48 la_data_in[27]
*49 la_data_in[28]
*50 la_data_in[29]
*51 la_data_in[2]
*52 la_data_in[30]
*53 la_data_in[31]
*54 la_data_in[32]
*55 la_data_in[33]
*56 la_data_in[34]
*57 la_data_in[35]
*58 la_data_in[36]
*59 la_data_in[37]
*60 la_data_in[38]
*61 la_data_in[39]
*62 la_data_in[3]
*63 la_data_in[40]
*64 la_data_in[41]
*65 la_data_in[42]
*66 la_data_in[43]
*67 la_data_in[44]
*68 la_data_in[45]
*69 la_data_in[46]
*70 la_data_in[47]
*71 la_data_in[48]
*72 la_data_in[49]
*73 la_data_in[4]
*74 la_data_in[50]
*75 la_data_in[51]
*76 la_data_in[52]
*77 la_data_in[53]
*78 la_data_in[54]
*79 la_data_in[55]
*80 la_data_in[56]
*81 la_data_in[57]
*82 la_data_in[58]
*83 la_data_in[59]
*84 la_data_in[5]
*85 la_data_in[60]
*86 la_data_in[61]
*87 la_data_in[62]
*88 la_data_in[63]
*89 la_data_in[64]
*90 la_data_in[65]
*91 la_data_in[66]
*92 la_data_in[67]
*93 la_data_in[68]
*94 la_data_in[69]
*95 la_data_in[6]
*96 la_data_in[70]
*97 la_data_in[71]
*98 la_data_in[72]
*99 la_data_in[73]
*100 la_data_in[74]
*101 la_data_in[75]
*102 la_data_in[76]
*103 la_data_in[77]
*104 la_data_in[78]
*105 la_data_in[79]
*106 la_data_in[7]
*107 la_data_in[80]
*108 la_data_in[81]
*109 la_data_in[82]
*110 la_data_in[83]
*111 la_data_in[84]
*112 la_data_in[85]
*113 la_data_in[86]
*114 la_data_in[87]
*115 la_data_in[88]
*116 la_data_in[89]
*117 la_data_in[8]
*118 la_data_in[90]
*119 la_data_in[91]
*120 la_data_in[92]
*121 la_data_in[93]
*122 la_data_in[94]
*123 la_data_in[95]
*124 la_data_in[96]
*125 la_data_in[97]
*126 la_data_in[98]
*127 la_data_in[99]
*128 la_data_in[9]
*129 la_data_out[0]
*130 la_data_out[100]
*131 la_data_out[101]
*132 la_data_out[102]
*133 la_data_out[103]
*134 la_data_out[104]
*135 la_data_out[105]
*136 la_data_out[106]
*137 la_data_out[107]
*138 la_data_out[108]
*139 la_data_out[109]
*140 la_data_out[10]
*141 la_data_out[110]
*142 la_data_out[111]
*143 la_data_out[112]
*144 la_data_out[113]
*145 la_data_out[114]
*146 la_data_out[115]
*147 la_data_out[116]
*148 la_data_out[117]
*149 la_data_out[118]
*150 la_data_out[119]
*151 la_data_out[11]
*152 la_data_out[120]
*153 la_data_out[121]
*154 la_data_out[122]
*155 la_data_out[123]
*156 la_data_out[124]
*157 la_data_out[125]
*158 la_data_out[126]
*159 la_data_out[127]
*160 la_data_out[12]
*161 la_data_out[13]
*162 la_data_out[14]
*163 la_data_out[15]
*164 la_data_out[16]
*165 la_data_out[17]
*166 la_data_out[18]
*167 la_data_out[19]
*168 la_data_out[1]
*169 la_data_out[20]
*170 la_data_out[21]
*171 la_data_out[22]
*172 la_data_out[23]
*173 la_data_out[24]
*174 la_data_out[25]
*175 la_data_out[26]
*176 la_data_out[27]
*177 la_data_out[28]
*178 la_data_out[29]
*179 la_data_out[2]
*180 la_data_out[30]
*181 la_data_out[31]
*182 la_data_out[32]
*183 la_data_out[33]
*184 la_data_out[34]
*185 la_data_out[35]
*186 la_data_out[36]
*187 la_data_out[37]
*188 la_data_out[38]
*189 la_data_out[39]
*190 la_data_out[3]
*191 la_data_out[40]
*192 la_data_out[41]
*193 la_data_out[42]
*194 la_data_out[43]
*195 la_data_out[44]
*196 la_data_out[45]
*197 la_data_out[46]
*198 la_data_out[47]
*199 la_data_out[48]
*200 la_data_out[49]
*201 la_data_out[4]
*202 la_data_out[50]
*203 la_data_out[51]
*204 la_data_out[52]
*205 la_data_out[53]
*206 la_data_out[54]
*207 la_data_out[55]
*208 la_data_out[56]
*209 la_data_out[57]
*210 la_data_out[58]
*211 la_data_out[59]
*212 la_data_out[5]
*213 la_data_out[60]
*214 la_data_out[61]
*215 la_data_out[62]
*216 la_data_out[63]
*217 la_data_out[64]
*218 la_data_out[65]
*219 la_data_out[66]
*220 la_data_out[67]
*221 la_data_out[68]
*222 la_data_out[69]
*223 la_data_out[6]
*224 la_data_out[70]
*225 la_data_out[71]
*226 la_data_out[72]
*227 la_data_out[73]
*228 la_data_out[74]
*229 la_data_out[75]
*230 la_data_out[76]
*231 la_data_out[77]
*232 la_data_out[78]
*233 la_data_out[79]
*234 la_data_out[7]
*235 la_data_out[80]
*236 la_data_out[81]
*237 la_data_out[82]
*238 la_data_out[83]
*239 la_data_out[84]
*240 la_data_out[85]
*241 la_data_out[86]
*242 la_data_out[87]
*243 la_data_out[88]
*244 la_data_out[89]
*245 la_data_out[8]
*246 la_data_out[90]
*247 la_data_out[91]
*248 la_data_out[92]
*249 la_data_out[93]
*250 la_data_out[94]
*251 la_data_out[95]
*252 la_data_out[96]
*253 la_data_out[97]
*254 la_data_out[98]
*255 la_data_out[99]
*256 la_data_out[9]
*265 wb_clk_i
*266 wb_rst_i
*267 mprj

*PORTS
la_data_in[0] I
la_data_in[100] I
la_data_in[101] I
la_data_in[102] I
la_data_in[103] I
la_data_in[104] I
la_data_in[105] I
la_data_in[106] I
la_data_in[107] I
la_data_in[108] I
la_data_in[109] I
la_data_in[10] I
la_data_in[110] I
la_data_in[111] I
la_data_in[112] I
la_data_in[113] I
la_data_in[114] I
la_data_in[115] I
la_data_in[116] I
la_data_in[117] I
la_data_in[118] I
la_data_in[119] I
la_data_in[11] I
la_data_in[120] I
la_data_in[121] I
la_data_in[122] I
la_data_in[123] I
la_data_in[124] I
la_data_in[125] I
la_data_in[126] I
la_data_in[127] I
la_data_in[12] I
la_data_in[13] I
la_data_in[14] I
la_data_in[15] I
la_data_in[16] I
la_data_in[17] I
la_data_in[18] I
la_data_in[19] I
la_data_in[1] I
la_data_in[20] I
la_data_in[21] I
la_data_in[22] I
la_data_in[23] I
la_data_in[24] I
la_data_in[25] I
la_data_in[26] I
la_data_in[27] I
la_data_in[28] I
la_data_in[29] I
la_data_in[2] I
la_data_in[30] I
la_data_in[31] I
la_data_in[32] I
la_data_in[33] I
la_data_in[34] I
la_data_in[35] I
la_data_in[36] I
la_data_in[37] I
la_data_in[38] I
la_data_in[39] I
la_data_in[3] I
la_data_in[40] I
la_data_in[41] I
la_data_in[42] I
la_data_in[43] I
la_data_in[44] I
la_data_in[45] I
la_data_in[46] I
la_data_in[47] I
la_data_in[48] I
la_data_in[49] I
la_data_in[4] I
la_data_in[50] I
la_data_in[51] I
la_data_in[52] I
la_data_in[53] I
la_data_in[54] I
la_data_in[55] I
la_data_in[56] I
la_data_in[57] I
la_data_in[58] I
la_data_in[59] I
la_data_in[5] I
la_data_in[60] I
la_data_in[61] I
la_data_in[62] I
la_data_in[63] I
la_data_in[64] I
la_data_in[65] I
la_data_in[66] I
la_data_in[67] I
la_data_in[68] I
la_data_in[69] I
la_data_in[6] I
la_data_in[70] I
la_data_in[71] I
la_data_in[72] I
la_data_in[73] I
la_data_in[74] I
la_data_in[75] I
la_data_in[76] I
la_data_in[77] I
la_data_in[78] I
la_data_in[79] I
la_data_in[7] I
la_data_in[80] I
la_data_in[81] I
la_data_in[82] I
la_data_in[83] I
la_data_in[84] I
la_data_in[85] I
la_data_in[86] I
la_data_in[87] I
la_data_in[88] I
la_data_in[89] I
la_data_in[8] I
la_data_in[90] I
la_data_in[91] I
la_data_in[92] I
la_data_in[93] I
la_data_in[94] I
la_data_in[95] I
la_data_in[96] I
la_data_in[97] I
la_data_in[98] I
la_data_in[99] I
la_data_in[9] I
la_data_out[0] O
la_data_out[100] O
la_data_out[101] O
la_data_out[102] O
la_data_out[103] O
la_data_out[104] O
la_data_out[105] O
la_data_out[106] O
la_data_out[107] O
la_data_out[108] O
la_data_out[109] O
la_data_out[10] O
la_data_out[110] O
la_data_out[111] O
la_data_out[112] O
la_data_out[113] O
la_data_out[114] O
la_data_out[115] O
la_data_out[116] O
la_data_out[117] O
la_data_out[118] O
la_data_out[119] O
la_data_out[11] O
la_data_out[120] O
la_data_out[121] O
la_data_out[122] O
la_data_out[123] O
la_data_out[124] O
la_data_out[125] O
la_data_out[126] O
la_data_out[127] O
la_data_out[12] O
la_data_out[13] O
la_data_out[14] O
la_data_out[15] O
la_data_out[16] O
la_data_out[17] O
la_data_out[18] O
la_data_out[19] O
la_data_out[1] O
la_data_out[20] O
la_data_out[21] O
la_data_out[22] O
la_data_out[23] O
la_data_out[24] O
la_data_out[25] O
la_data_out[26] O
la_data_out[27] O
la_data_out[28] O
la_data_out[29] O
la_data_out[2] O
la_data_out[30] O
la_data_out[31] O
la_data_out[32] O
la_data_out[33] O
la_data_out[34] O
la_data_out[35] O
la_data_out[36] O
la_data_out[37] O
la_data_out[38] O
la_data_out[39] O
la_data_out[3] O
la_data_out[40] O
la_data_out[41] O
la_data_out[42] O
la_data_out[43] O
la_data_out[44] O
la_data_out[45] O
la_data_out[46] O
la_data_out[47] O
la_data_out[48] O
la_data_out[49] O
la_data_out[4] O
la_data_out[50] O
la_data_out[51] O
la_data_out[52] O
la_data_out[53] O
la_data_out[54] O
la_data_out[55] O
la_data_out[56] O
la_data_out[57] O
la_data_out[58] O
la_data_out[59] O
la_data_out[5] O
la_data_out[60] O
la_data_out[61] O
la_data_out[62] O
la_data_out[63] O
la_data_out[64] O
la_data_out[65] O
la_data_out[66] O
la_data_out[67] O
la_data_out[68] O
la_data_out[69] O
la_data_out[6] O
la_data_out[70] O
la_data_out[71] O
la_data_out[72] O
la_data_out[73] O
la_data_out[74] O
la_data_out[75] O
la_data_out[76] O
la_data_out[77] O
la_data_out[78] O
la_data_out[79] O
la_data_out[7] O
la_data_out[80] O
la_data_out[81] O
la_data_out[82] O
la_data_out[83] O
la_data_out[84] O
la_data_out[85] O
la_data_out[86] O
la_data_out[87] O
la_data_out[88] O
la_data_out[89] O
la_data_out[8] O
la_data_out[90] O
la_data_out[91] O
la_data_out[92] O
la_data_out[93] O
la_data_out[94] O
la_data_out[95] O
la_data_out[96] O
la_data_out[97] O
la_data_out[98] O
la_data_out[99] O
la_data_out[9] O
wb_clk_i I
wb_rst_i I

*D_NET *1 0.0719738
*CONN
*P la_data_in[0] I
*I *267:la_data_in I *D user_proj_example
*CAP
1 la_data_in[0] 0.000650662
2 *267:la_data_in 6.60743e-05
3 *1:9 0.0185792
4 *1:7 0.0191637
5 *1:7 *172:17 0
6 *1:9 *129:6 0.00419333
7 *1:9 *140:17 0
8 *1:9 *151:17 0
9 *1:9 *160:11 0
10 *1:9 *161:11 0.000394976
11 *1:9 *162:11 0.000546111
12 *1:9 *163:11 0.000833289
13 *1:9 *164:11 0.00131518
14 *1:9 *165:11 0.013132
15 *1:9 *167:19 0.00493968
16 *1:9 *256:6 0.00815969
*RES
1 la_data_in[0] *1:7 14.4011 
2 *1:7 *1:9 80.4374 
3 *1:9 *267:la_data_in 4.68679 
*END

*D_NET *129 0.102187
*CONN
*P la_data_out[0] O
*I *267:la_data_out[0] O *D user_proj_example
*CAP
1 la_data_out[0] 0.000791498
2 *267:la_data_out[0] 0
3 *129:6 0.0124321
4 *129:4 0.0116407
5 la_data_out[0] *170:17 0
6 *129:6 *190:6 0.0428013
7 *129:6 *256:6 0.0303281
8 *1:9 *129:6 0.00419333
*RES
1 *267:la_data_out[0] *129:4 3.41 
2 *129:4 *129:6 77.9871 
3 *129:6 la_data_out[0] 16.8296 
*END

*D_NET *130 0.0270439
*CONN
*P la_data_out[100] O
*I *267:la_data_out[100] O *D user_proj_example
*CAP
1 la_data_out[100] 0.00526442
2 *267:la_data_out[100] 0.00526442
3 la_data_out[100] la_data_out[104] 4.07407e-06
4 la_data_out[100] la_data_out[105] 0.00167445
5 la_data_out[100] la_data_out[107] 0.00033235
6 la_data_out[100] *250:15 0.0040289
7 la_data_out[100] *255:17 0.0104753
*RES
1 *267:la_data_out[100] la_data_out[100] 46.5859 
*END

*D_NET *131 0.0343575
*CONN
*P la_data_out[101] O
*I *267:la_data_out[101] O *D user_proj_example
*CAP
1 la_data_out[101] 0.0033148
2 *267:la_data_out[101] 0.0033148
3 la_data_out[101] la_data_out[102] 0.0128347
4 la_data_out[101] la_data_out[103] 0.000526702
5 la_data_out[101] la_data_out[106] 0.00448635
6 la_data_out[101] la_data_out[93] 0.000321615
7 la_data_out[101] la_data_out[98] 0.00955851
*RES
1 *267:la_data_out[101] la_data_out[101] 46.1528 
*END

*D_NET *132 0.0270584
*CONN
*P la_data_out[102] O
*I *267:la_data_out[102] O *D user_proj_example
*CAP
1 la_data_out[102] 0.00579136
2 *267:la_data_out[102] 0.00579136
3 la_data_out[102] la_data_out[106] 0.00115193
4 la_data_out[102] la_data_out[94] 0
5 la_data_out[102] la_data_out[97] 0.00148898
6 la_data_out[102] *250:15 0
7 la_data_out[101] la_data_out[102] 0.0128347
*RES
1 *267:la_data_out[102] la_data_out[102] 45.8665 
*END

*D_NET *133 0.0356283
*CONN
*P la_data_out[103] O
*I *267:la_data_out[103] O *D user_proj_example
*CAP
1 la_data_out[103] 0.00274967
2 *267:la_data_out[103] 0.00274967
3 la_data_out[103] la_data_out[104] 0.0124776
4 la_data_out[103] la_data_out[106] 0.00831888
5 la_data_out[103] la_data_out[95] 0
6 la_data_out[103] la_data_out[96] 0.00199405
7 la_data_out[103] la_data_out[98] 0.00536592
8 la_data_out[103] la_data_out[99] 0.00136166
9 la_data_out[103] *253:17 5.28401e-05
10 la_data_out[103] *255:17 3.12895e-05
11 la_data_out[101] la_data_out[103] 0.000526702
*RES
1 *267:la_data_out[103] la_data_out[103] 43.862 
*END

*D_NET *134 0.0318763
*CONN
*P la_data_out[104] O
*I *267:la_data_out[104] O *D user_proj_example
*CAP
1 la_data_out[104] 0.00275821
2 *267:la_data_out[104] 0.00275821
3 la_data_out[104] la_data_out[105] 0.0121217
4 la_data_out[104] la_data_out[106] 0.000990536
5 la_data_out[104] la_data_out[96] 2.83284e-06
6 la_data_out[104] *255:17 0.000763115
7 la_data_out[100] la_data_out[104] 4.07407e-06
8 la_data_out[103] la_data_out[104] 0.0124776
*RES
1 *267:la_data_out[104] la_data_out[104] 41.9283 
*END

*D_NET *135 0.029359
*CONN
*P la_data_out[105] O
*I *267:la_data_out[105] O *D user_proj_example
*CAP
1 la_data_out[105] 0.00284458
2 *267:la_data_out[105] 0.00284458
3 la_data_out[105] la_data_out[106] 0.000276294
4 la_data_out[105] la_data_out[107] 0.00117965
5 la_data_out[105] la_data_out[108] 0.00734431
6 la_data_out[105] la_data_out[111] 0.000965719
7 la_data_out[105] *255:17 0.000107769
8 la_data_out[100] la_data_out[105] 0.00167445
9 la_data_out[104] la_data_out[105] 0.0121217
*RES
1 *267:la_data_out[105] la_data_out[105] 41.1381 
*END

*D_NET *136 0.0298525
*CONN
*P la_data_out[106] O
*I *267:la_data_out[106] O *D user_proj_example
*CAP
1 la_data_out[106] 0.00291498
2 *267:la_data_out[106] 0.00291498
3 la_data_out[106] la_data_out[109] 0.00712021
4 la_data_out[106] la_data_out[111] 0.00167834
5 la_data_out[101] la_data_out[106] 0.00448635
6 la_data_out[102] la_data_out[106] 0.00115193
7 la_data_out[103] la_data_out[106] 0.00831888
8 la_data_out[104] la_data_out[106] 0.000990536
9 la_data_out[105] la_data_out[106] 0.000276294
*RES
1 *267:la_data_out[106] la_data_out[106] 41.5463 
*END

*D_NET *137 0.0223779
*CONN
*P la_data_out[107] O
*I *267:la_data_out[107] O *D user_proj_example
*CAP
1 la_data_out[107] 0.00497433
2 *267:la_data_out[107] 0.00497433
3 la_data_out[107] la_data_out[108] 0.0109173
4 la_data_out[107] la_data_out[112] 0
5 la_data_out[107] la_data_out[113] 0
6 la_data_out[100] la_data_out[107] 0.00033235
7 la_data_out[105] la_data_out[107] 0.00117965
*RES
1 *267:la_data_out[107] la_data_out[107] 40.9481 
*END

*D_NET *138 0.02726
*CONN
*P la_data_out[108] O
*I *267:la_data_out[108] O *D user_proj_example
*CAP
1 la_data_out[108] 0.00293497
2 *267:la_data_out[108] 0.00293497
3 la_data_out[108] la_data_out[111] 0.00305075
4 la_data_out[108] la_data_out[112] 0
5 la_data_out[108] la_data_out[114] 7.77155e-05
6 la_data_out[105] la_data_out[108] 0.00734431
7 la_data_out[107] la_data_out[108] 0.0109173
*RES
1 *267:la_data_out[108] la_data_out[108] 40.4436 
*END

*D_NET *139 0.020777
*CONN
*P la_data_out[109] O
*I *267:la_data_out[109] O *D user_proj_example
*CAP
1 la_data_out[109] 0.00470357
2 *267:la_data_out[109] 0.00470357
3 la_data_out[109] la_data_out[111] 0.000527657
4 la_data_out[109] la_data_out[113] 0.00372202
5 la_data_out[106] la_data_out[109] 0.00712021
*RES
1 *267:la_data_out[109] la_data_out[109] 41.4902 
*END

*D_NET *140 0.066495
*CONN
*P la_data_out[10] O
*I *267:la_data_out[10] O *D user_proj_example
*CAP
1 la_data_out[10] 0.000331172
2 *267:la_data_out[10] 0.00643199
3 *140:19 0.00946017
4 *140:17 0.015561
5 la_data_out[10] *173:15 0
6 la_data_out[10] *182:13 0
7 *140:17 *151:17 0.0126902
8 *140:17 *151:19 0.000366902
9 *140:17 *160:11 0.00129759
10 *140:17 *166:11 0.000449812
11 *140:17 *168:11 0
12 *140:19 la_data_out[11] 0.00247329
13 *140:19 *151:19 0.0137824
14 *140:19 *166:11 0.000224521
15 *140:19 *167:17 0.000651894
16 *140:19 *169:17 0.000397126
17 *140:19 *172:17 0.000397126
18 *140:19 *175:13 0.00197983
19 *1:9 *140:17 0
*RES
1 *267:la_data_out[10] *140:17 47.1165 
2 *140:17 *140:19 257.643 
3 *140:19 la_data_out[10] 9.875 
*END

*D_NET *141 0.0148864
*CONN
*P la_data_out[110] O
*I *267:la_data_out[110] O *D user_proj_example
*CAP
1 la_data_out[110] 0.00744321
2 *267:la_data_out[110] 0.00744321
3 la_data_out[110] la_data_out[112] 0
*RES
1 *267:la_data_out[110] la_data_out[110] 37.9899 
*END

*D_NET *142 0.0201063
*CONN
*P la_data_out[111] O
*I *267:la_data_out[111] O *D user_proj_example
*CAP
1 la_data_out[111] 0.00370823
2 *267:la_data_out[111] 0.00370823
3 la_data_out[111] la_data_out[112] 0
4 la_data_out[111] la_data_out[113] 0.00117112
5 la_data_out[111] la_data_out[114] 0.00529627
6 la_data_out[105] la_data_out[111] 0.000965719
7 la_data_out[106] la_data_out[111] 0.00167834
8 la_data_out[108] la_data_out[111] 0.00305075
9 la_data_out[109] la_data_out[111] 0.000527657
*RES
1 *267:la_data_out[111] la_data_out[111] 38.8582 
*END

*D_NET *143 0.0136454
*CONN
*P la_data_out[112] O
*I *267:la_data_out[112] O *D user_proj_example
*CAP
1 la_data_out[112] 0.00648176
2 *267:la_data_out[112] 0.00648176
3 la_data_out[112] la_data_out[117] 0.000681829
4 la_data_out[107] la_data_out[112] 0
5 la_data_out[108] la_data_out[112] 0
6 la_data_out[110] la_data_out[112] 0
7 la_data_out[111] la_data_out[112] 0
*RES
1 *267:la_data_out[112] la_data_out[112] 38.2816 
*END

*D_NET *144 0.025196
*CONN
*P la_data_out[113] O
*I *267:la_data_out[113] O *D user_proj_example
*CAP
1 la_data_out[113] 0.00272179
2 *267:la_data_out[113] 0.00272179
3 la_data_out[113] la_data_out[114] 0.0089444
4 la_data_out[113] la_data_out[115] 0.00117614
5 la_data_out[113] la_data_out[116] 0.00473877
6 la_data_out[107] la_data_out[113] 0
7 la_data_out[109] la_data_out[113] 0.00372202
8 la_data_out[111] la_data_out[113] 0.00117112
*RES
1 *267:la_data_out[113] la_data_out[113] 38.7427 
*END

*D_NET *145 0.0220955
*CONN
*P la_data_out[114] O
*I *267:la_data_out[114] O *D user_proj_example
*CAP
1 la_data_out[114] 0.00339384
2 *267:la_data_out[114] 0.00339384
3 la_data_out[114] la_data_out[116] 0.000989488
4 la_data_out[108] la_data_out[114] 7.77155e-05
5 la_data_out[111] la_data_out[114] 0.00529627
6 la_data_out[113] la_data_out[114] 0.0089444
*RES
1 *267:la_data_out[114] la_data_out[114] 38.2912 
*END

*D_NET *146 0.0177829
*CONN
*P la_data_out[115] O
*I *267:la_data_out[115] O *D user_proj_example
*CAP
1 la_data_out[115] 0.00429671
2 *267:la_data_out[115] 0.00429671
3 la_data_out[115] la_data_out[116] 0.00801334
4 la_data_out[113] la_data_out[115] 0.00117614
*RES
1 *267:la_data_out[115] la_data_out[115] 39.265 
*END

*D_NET *147 0.0201442
*CONN
*P la_data_out[116] O
*I *267:la_data_out[116] O *D user_proj_example
*CAP
1 la_data_out[116] 0.00320129
2 *267:la_data_out[116] 0.00320129
3 la_data_out[113] la_data_out[116] 0.00473877
4 la_data_out[114] la_data_out[116] 0.000989488
5 la_data_out[115] la_data_out[116] 0.00801334
*RES
1 *267:la_data_out[116] la_data_out[116] 37.0654 
*END

*D_NET *148 0.0197951
*CONN
*P la_data_out[117] O
*I *267:la_data_out[117] O *D user_proj_example
*CAP
1 la_data_out[117] 0.00304492
2 *267:la_data_out[117] 0.00304492
3 la_data_out[117] la_data_out[118] 0.00755099
4 la_data_out[117] la_data_out[119] 0.00547246
5 la_data_out[112] la_data_out[117] 0.000681829
*RES
1 *267:la_data_out[117] la_data_out[117] 35.6152 
*END

*D_NET *149 0.0158989
*CONN
*P la_data_out[118] O
*I *267:la_data_out[118] O *D user_proj_example
*CAP
1 la_data_out[118] 0.00367568
2 *267:la_data_out[118] 0.00367568
3 la_data_out[118] la_data_out[119] 0.000996584
4 la_data_out[117] la_data_out[118] 0.00755099
*RES
1 *267:la_data_out[118] la_data_out[118] 34.7 
*END

*D_NET *150 0.0187211
*CONN
*P la_data_out[119] O
*I *267:la_data_out[119] O *D user_proj_example
*CAP
1 la_data_out[119] 0.00262863
2 *267:la_data_out[119] 0.00262863
3 la_data_out[119] la_data_out[120] 0.00699479
4 la_data_out[117] la_data_out[119] 0.00547246
5 la_data_out[118] la_data_out[119] 0.000996584
*RES
1 *267:la_data_out[119] la_data_out[119] 33.8569 
*END

*D_NET *151 0.0806664
*CONN
*P la_data_out[11] O
*I *267:la_data_out[11] O *D user_proj_example
*CAP
1 la_data_out[11] 0.00121921
2 *267:la_data_out[11] 0.00255146
3 *151:19 0.0101018
4 *151:17 0.011434
5 la_data_out[11] *172:19 0.0012533
6 la_data_out[11] *172:25 0.00188315
7 la_data_out[11] *173:25 0
8 la_data_out[11] *173:27 8.55687e-05
9 la_data_out[11] *175:13 0.00068508
10 la_data_out[11] *177:17 0
11 *151:17 *160:11 0.0104962
12 *151:19 *167:17 0.000823102
13 *151:19 *168:11 0.000337203
14 *151:19 *169:17 0.00162571
15 *151:19 *172:17 0.00162569
16 *151:19 *172:19 0.00391741
17 *151:19 *175:13 0.00331477
18 *1:9 *151:17 0
19 *140:17 *151:17 0.0126902
20 *140:17 *151:19 0.000366902
21 *140:19 la_data_out[11] 0.00247329
22 *140:19 *151:19 0.0137824
*RES
1 *267:la_data_out[11] *151:17 39.818 
2 *151:17 *151:19 258.67 
3 *151:19 la_data_out[11] 49.3482 
*END

*D_NET *152 0.0188473
*CONN
*P la_data_out[120] O
*I *267:la_data_out[120] O *D user_proj_example
*CAP
1 la_data_out[120] 0.00241491
2 *267:la_data_out[120] 0.00241491
3 la_data_out[120] la_data_out[121] 0.00662909
4 la_data_out[120] la_data_out[124] 0.000393641
5 la_data_out[119] la_data_out[120] 0.00699479
*RES
1 *267:la_data_out[120] la_data_out[120] 33.0858 
*END

*D_NET *153 0.0146537
*CONN
*P la_data_out[121] O
*I *267:la_data_out[121] O *D user_proj_example
*CAP
1 la_data_out[121] 0.00296798
2 *267:la_data_out[121] 0.00296798
3 la_data_out[121] la_data_out[122] 0.000576488
4 la_data_out[121] la_data_out[123] 0.00151217
5 la_data_out[121] la_data_out[125] 0
6 la_data_out[120] la_data_out[121] 0.00662909
*RES
1 *267:la_data_out[121] la_data_out[121] 32.5093 
*END

*D_NET *154 0.0139989
*CONN
*P la_data_out[122] O
*I *267:la_data_out[122] O *D user_proj_example
*CAP
1 la_data_out[122] 0.00381839
2 *267:la_data_out[122] 0.00381839
3 la_data_out[122] la_data_out[123] 0.00578566
4 la_data_out[121] la_data_out[122] 0.000576488
*RES
1 *267:la_data_out[122] la_data_out[122] 31.5759 
*END

*D_NET *155 0.0136805
*CONN
*P la_data_out[123] O
*I *267:la_data_out[123] O *D user_proj_example
*CAP
1 la_data_out[123] 0.00319133
2 *267:la_data_out[123] 0.00319133
3 la_data_out[121] la_data_out[123] 0.00151217
4 la_data_out[122] la_data_out[123] 0.00578566
*RES
1 *267:la_data_out[123] la_data_out[123] 31.0619 
*END

*D_NET *156 0.0110509
*CONN
*P la_data_out[124] O
*I *267:la_data_out[124] O *D user_proj_example
*CAP
1 la_data_out[124] 0.00368946
2 *267:la_data_out[124] 0.00368946
3 la_data_out[124] la_data_out[125] 0.00236241
4 la_data_out[124] la_data_out[127] 0.000915945
5 la_data_out[120] la_data_out[124] 0.000393641
*RES
1 *267:la_data_out[124] la_data_out[124] 32.6196 
*END

*D_NET *157 0.0146451
*CONN
*P la_data_out[125] O
*I *267:la_data_out[125] O *D user_proj_example
*CAP
1 la_data_out[125] 0.00240746
2 *267:la_data_out[125] 0.00240746
3 la_data_out[125] la_data_out[126] 0.00479295
4 la_data_out[125] la_data_out[127] 0.0026748
5 la_data_out[121] la_data_out[125] 0
6 la_data_out[124] la_data_out[125] 0.00236241
*RES
1 *267:la_data_out[125] la_data_out[125] 32.8639 
*END

*D_NET *158 0.0114686
*CONN
*P la_data_out[126] O
*I *267:la_data_out[126] O *D user_proj_example
*CAP
1 la_data_out[126] 0.00288862
2 *267:la_data_out[126] 0.00288862
3 la_data_out[126] la_data_out[127] 0.000898352
4 la_data_out[125] la_data_out[126] 0.00479295
*RES
1 *267:la_data_out[126] la_data_out[126] 33.3556 
*END

*D_NET *159 0.0100483
*CONN
*P la_data_out[127] O
*I *267:la_data_out[127] O *D user_proj_example
*CAP
1 la_data_out[127] 0.00277962
2 *267:la_data_out[127] 0.00277962
3 la_data_out[124] la_data_out[127] 0.000915945
4 la_data_out[125] la_data_out[127] 0.0026748
5 la_data_out[126] la_data_out[127] 0.000898352
*RES
1 *267:la_data_out[127] la_data_out[127] 31.2261 
*END

*D_NET *160 0.104071
*CONN
*P la_data_out[12] O
*I *267:la_data_out[12] O *D user_proj_example
*CAP
1 la_data_out[12] 0.000447129
2 *267:la_data_out[12] 0.000326676
3 *160:11 0.0075459
4 *160:9 0.00742545
5 *160:11 *161:11 0.0436159
6 *160:11 *166:11 0.0329164
7 *1:9 *160:11 0
8 *140:17 *160:11 0.00129759
9 *151:17 *160:11 0.0104962
*RES
1 *267:la_data_out[12] *160:9 9.89214 
2 *160:9 *160:11 71.3209 
3 *160:11 la_data_out[12] 10.7582 
*END

*D_NET *161 0.103692
*CONN
*P la_data_out[13] O
*I *267:la_data_out[13] O *D user_proj_example
*CAP
1 la_data_out[13] 0.000481532
2 *267:la_data_out[13] 0.000277456
3 *161:11 0.00739888
4 *161:9 0.0071948
5 la_data_out[13] *176:15 0
6 *161:11 *162:11 0.0433316
7 *161:11 *166:11 0.000996627
8 *1:9 *161:11 0.000394976
9 *160:11 *161:11 0.0436159
*RES
1 *267:la_data_out[13] *161:9 8.87429 
2 *161:9 *161:11 70.8885 
3 *161:11 la_data_out[13] 11.3654 
*END

*D_NET *162 0.102699
*CONN
*P la_data_out[14] O
*I *267:la_data_out[14] O *D user_proj_example
*CAP
1 la_data_out[14] 0.000460319
2 *267:la_data_out[14] 0.000228237
3 *162:11 0.00720352
4 *162:9 0.00697143
5 la_data_out[14] *176:25 0.000194956
6 la_data_out[14] *185:15 0
7 *162:11 *163:11 0.0430831
8 *162:11 *166:11 0.000680098
9 *1:9 *162:11 0.000546111
10 *161:11 *162:11 0.0433316
*RES
1 *267:la_data_out[14] *162:9 7.85643 
2 *162:9 *162:11 70.3841 
3 *162:11 la_data_out[14] 11.9725 
*END

*D_NET *163 0.102047
*CONN
*P la_data_out[15] O
*I *267:la_data_out[15] O *D user_proj_example
*CAP
1 la_data_out[15] 0.000440905
2 *267:la_data_out[15] 0.000179018
3 *163:11 0.0070325
4 *163:9 0.00677062
5 la_data_out[15] *180:19 0
6 la_data_out[15] *186:17 0.000433227
7 *163:11 *164:11 0.0427513
8 *163:11 *166:11 0.000523035
9 *1:9 *163:11 0.000833289
10 *162:11 *163:11 0.0430831
*RES
1 *267:la_data_out[15] *163:9 6.83857 
2 *163:9 *163:11 70.0237 
3 *163:11 la_data_out[15] 12.5796 
*END

*D_NET *164 0.101412
*CONN
*P la_data_out[16] O
*I *267:la_data_out[16] O *D user_proj_example
*CAP
1 la_data_out[16] 0.000573996
2 *267:la_data_out[16] 0.000149311
3 *164:11 0.00726177
4 *164:9 0.00683709
5 la_data_out[16] *187:17 0
6 *164:11 *165:11 0.0421892
7 *164:11 *166:11 0.000334353
8 *1:9 *164:11 0.00131518
9 *163:11 *164:11 0.0427513
*RES
1 *267:la_data_out[16] *164:9 6.23143 
2 *164:9 *164:11 69.4472 
3 *164:11 la_data_out[16] 13.1868 
*END

*D_NET *165 0.100832
*CONN
*P la_data_out[17] O
*I *267:la_data_out[17] O *D user_proj_example
*CAP
1 la_data_out[17] 0.000619203
2 *267:la_data_out[17] 0.000181454
3 *165:11 0.00731389
4 *165:9 0.00687615
5 *165:11 *166:11 0
6 *165:11 *167:19 0.000493109
7 *165:11 *170:19 0.030027
8 *1:9 *165:11 0.013132
9 *164:11 *165:11 0.0421892
*RES
1 *267:la_data_out[17] *165:9 6.85643 
2 *165:9 *165:11 68.6545 
3 *165:11 la_data_out[17] 13.7939 
*END

*D_NET *166 0.0734055
*CONN
*P la_data_out[18] O
*I *267:la_data_out[18] O *D user_proj_example
*CAP
1 la_data_out[18] 0.000430759
2 *267:la_data_out[18] 0.000405239
3 *166:11 0.0112585
4 *166:9 0.011233
5 la_data_out[18] *183:17 0
6 *166:11 la_data_out[26] 0.0021067
7 *166:11 *167:17 0.00102922
8 *166:11 *168:11 0
9 *166:11 *169:17 0.000842125
10 *166:11 *170:17 0
11 *166:11 *170:19 0
12 *166:11 *172:17 0.00121008
13 *166:11 *173:27 0.000722094
14 *166:11 *175:13 0.00490004
15 *166:11 *176:27 0.00142261
16 *166:11 *178:25 0.00172024
17 *140:17 *166:11 0.000449812
18 *140:19 *166:11 0.000224521
19 *160:11 *166:11 0.0329164
20 *161:11 *166:11 0.000996627
21 *162:11 *166:11 0.000680098
22 *163:11 *166:11 0.000523035
23 *164:11 *166:11 0.000334353
24 *165:11 *166:11 0
*RES
1 *267:la_data_out[18] *166:9 10.4993 
2 *166:9 *166:11 68.0779 
3 *166:11 la_data_out[18] 10.1511 
*END

*D_NET *167 0.106763
*CONN
*P la_data_out[19] O
*I *267:la_data_out[19] O *D user_proj_example
*CAP
1 la_data_out[19] 0.00068514
2 *267:la_data_out[19] 0.00205915
3 *167:19 0.00786354
4 *167:17 0.00923755
5 *167:17 *168:11 2.65052e-05
6 *167:17 *169:17 0.00172663
7 *167:17 *170:17 0
8 *167:17 *179:11 0.000463797
9 *167:17 *201:11 6.11251e-05
10 *167:19 *169:19 0.0344009
11 *167:19 *170:19 0.0328714
12 *167:19 *171:27 0.00718866
13 *167:19 *256:6 0.00224201
14 *1:9 *167:19 0.00493968
15 *140:19 *167:17 0.000651894
16 *151:19 *167:17 0.000823102
17 *165:11 *167:19 0.000493109
18 *166:11 *167:17 0.00102922
*RES
1 *267:la_data_out[19] *167:17 33.1871 
2 *167:17 *167:19 61.5919 
3 *167:19 la_data_out[19] 15.0082 
*END

*D_NET *168 0.0858428
*CONN
*P la_data_out[1] O
*I *267:la_data_out[1] O *D user_proj_example
*CAP
1 la_data_out[1] 0.000116846
2 *267:la_data_out[1] 0.000505793
3 *168:19 0.00272223
4 *168:17 0.00283501
5 *168:11 0.0130012
6 *168:9 0.0132774
7 *168:11 *179:11 0.0362904
8 *168:19 *179:19 0.00901826
9 *168:19 *201:19 0.00508271
10 *168:19 *245:11 0.00262929
11 *140:17 *168:11 0
12 *151:19 *168:11 0.000337203
13 *166:11 *168:11 0
14 *167:17 *168:11 2.65052e-05
*RES
1 *267:la_data_out[1] *168:9 13.5171 
2 *168:9 *168:11 60.0785 
3 *168:11 *168:17 11.5261 
4 *168:17 *168:19 100.339 
5 *168:19 la_data_out[1] 5.66071 
*END

*D_NET *169 0.0899284
*CONN
*P la_data_out[20] O
*I *267:la_data_out[20] O *D user_proj_example
*CAP
1 la_data_out[20] 0.000724489
2 *267:la_data_out[20] 0.00277337
3 *169:19 0.0117392
4 *169:17 0.0137881
5 la_data_out[20] *191:15 0
6 *169:17 *170:17 0.00223763
7 *169:17 *172:17 0
8 *169:17 *201:11 0.000576488
9 *169:19 *170:19 0.000888718
10 *169:19 *171:27 0.000276105
11 *169:19 *182:19 0.000957539
12 *169:19 *256:6 0.0169742
13 *140:19 *169:17 0.000397126
14 *151:19 *169:17 0.00162571
15 *166:11 *169:17 0.000842125
16 *167:17 *169:17 0.00172663
17 *167:19 *169:19 0.0344009
*RES
1 *267:la_data_out[20] *169:17 38.4677 