*SPEF "ieee 1481-1999"
*DESIGN "user_project_wrapper"
*DATE "11:11:11 Fri 11 11, 1111"
*VENDOR "OpenRCX"
*PROGRAM "Parallel Extraction"
*VERSION "1.0"
*DESIGN_FLOW "NAME_SCOPE LOCAL" "PIN_CAP NONE"
*DIVIDER /
*DELIMITER :
*BUS_DELIMITER []
*T_UNIT 1 NS
*C_UNIT 1 PF
*R_UNIT 1 OHM
*L_UNIT 1 HENRY

*NAME_MAP
*1 la_data_in[0]
*2 la_data_in[100]
*3 la_data_in[101]
*4 la_data_in[102]
*5 la_data_in[103]
*6 la_data_in[104]
*7 la_data_in[105]
*8 la_data_in[106]
*9 la_data_in[107]
*10 la_data_in[108]
*11 la_data_in[109]
*12 la_data_in[10]
*13 la_data_in[110]
*14 la_data_in[111]
*15 la_data_in[112]
*16 la_data_in[113]
*17 la_data_in[114]
*18 la_data_in[115]
*19 la_data_in[116]
*20 la_data_in[117]
*21 la_data_in[118]
*22 la_data_in[119]
*23 la_data_in[11]
*24 la_data_in[120]
*25 la_data_in[121]
*26 la_data_in[122]
*27 la_data_in[123]
*28 la_data_in[124]
*29 la_data_in[125]
*30 la_data_in[126]
*31 la_data_in[127]
*32 la_data_in[12]
*33 la_data_in[13]
*34 la_data_in[14]
*35 la_data_in[15]
*36 la_data_in[16]
*37 la_data_in[17]
*38 la_data_in[18]
*39 la_data_in[19]
*40 la_data_in[1]
*41 la_data_in[20]
*42 la_data_in[21]
*43 la_data_in[22]
*44 la_data_in[23]
*45 la_data_in[24]
*46 la_data_in[25]
*47 la_data_in[26]
*48 la_data_in[27]
*49 la_data_in[28]
*50 la_data_in[29]
*51 la_data_in[2]
*52 la_data_in[30]
*53 la_data_in[31]
*54 la_data_in[32]
*55 la_data_in[33]
*56 la_data_in[34]
*57 la_data_in[35]
*58 la_data_in[36]
*59 la_data_in[37]
*60 la_data_in[38]
*61 la_data_in[39]
*62 la_data_in[3]
*63 la_data_in[40]
*64 la_data_in[41]
*65 la_data_in[42]
*66 la_data_in[43]
*67 la_data_in[44]
*68 la_data_in[45]
*69 la_data_in[46]
*70 la_data_in[47]
*71 la_data_in[48]
*72 la_data_in[49]
*73 la_data_in[4]
*74 la_data_in[50]
*75 la_data_in[51]
*76 la_data_in[52]
*77 la_data_in[53]
*78 la_data_in[54]
*79 la_data_in[55]
*80 la_data_in[56]
*81 la_data_in[57]
*82 la_data_in[58]
*83 la_data_in[59]
*84 la_data_in[5]
*85 la_data_in[60]
*86 la_data_in[61]
*87 la_data_in[62]
*88 la_data_in[63]
*89 la_data_in[64]
*90 la_data_in[65]
*91 la_data_in[66]
*92 la_data_in[67]
*93 la_data_in[68]
*94 la_data_in[69]
*95 la_data_in[6]
*96 la_data_in[70]
*97 la_data_in[71]
*98 la_data_in[72]
*99 la_data_in[73]
*100 la_data_in[74]
*101 la_data_in[75]
*102 la_data_in[76]
*103 la_data_in[77]
*104 la_data_in[78]
*105 la_data_in[79]
*106 la_data_in[7]
*107 la_data_in[80]
*108 la_data_in[81]
*109 la_data_in[82]
*110 la_data_in[83]
*111 la_data_in[84]
*112 la_data_in[85]
*113 la_data_in[86]
*114 la_data_in[87]
*115 la_data_in[88]
*116 la_data_in[89]
*117 la_data_in[8]
*118 la_data_in[90]
*119 la_data_in[91]
*120 la_data_in[92]
*121 la_data_in[93]
*122 la_data_in[94]
*123 la_data_in[95]
*124 la_data_in[96]
*125 la_data_in[97]
*126 la_data_in[98]
*127 la_data_in[99]
*128 la_data_in[9]
*129 la_data_out[0]
*130 la_data_out[100]
*131 la_data_out[101]
*132 la_data_out[102]
*133 la_data_out[103]
*134 la_data_out[104]
*135 la_data_out[105]
*136 la_data_out[106]
*137 la_data_out[107]
*138 la_data_out[108]
*139 la_data_out[109]
*140 la_data_out[10]
*141 la_data_out[110]
*142 la_data_out[111]
*143 la_data_out[112]
*144 la_data_out[113]
*145 la_data_out[114]
*146 la_data_out[115]
*147 la_data_out[116]
*148 la_data_out[117]
*149 la_data_out[118]
*150 la_data_out[119]
*151 la_data_out[11]
*152 la_data_out[120]
*153 la_data_out[121]
*154 la_data_out[122]
*155 la_data_out[123]
*156 la_data_out[124]
*157 la_data_out[125]
*158 la_data_out[126]
*159 la_data_out[127]
*160 la_data_out[12]
*161 la_data_out[13]
*162 la_data_out[14]
*163 la_data_out[15]
*164 la_data_out[16]
*165 la_data_out[17]
*166 la_data_out[18]
*167 la_data_out[19]
*168 la_data_out[1]
*169 la_data_out[20]
*170 la_data_out[21]
*171 la_data_out[22]
*172 la_data_out[23]
*173 la_data_out[24]
*174 la_data_out[25]
*175 la_data_out[26]
*176 la_data_out[27]
*177 la_data_out[28]
*178 la_data_out[29]
*179 la_data_out[2]
*180 la_data_out[30]
*181 la_data_out[31]
*182 la_data_out[32]
*183 la_data_out[33]
*184 la_data_out[34]
*185 la_data_out[35]
*186 la_data_out[36]
*187 la_data_out[37]
*188 la_data_out[38]
*189 la_data_out[39]
*190 la_data_out[3]
*191 la_data_out[40]
*192 la_data_out[41]
*193 la_data_out[42]
*194 la_data_out[43]
*195 la_data_out[44]
*196 la_data_out[45]
*197 la_data_out[46]
*198 la_data_out[47]
*199 la_data_out[48]
*200 la_data_out[49]
*201 la_data_out[4]
*202 la_data_out[50]
*203 la_data_out[51]
*204 la_data_out[52]
*205 la_data_out[53]
*206 la_data_out[54]
*207 la_data_out[55]
*208 la_data_out[56]
*209 la_data_out[57]
*210 la_data_out[58]
*211 la_data_out[59]
*212 la_data_out[5]
*213 la_data_out[60]
*214 la_data_out[61]
*215 la_data_out[62]
*216 la_data_out[63]
*217 la_data_out[64]
*218 la_data_out[65]
*219 la_data_out[66]
*220 la_data_out[67]
*221 la_data_out[68]
*222 la_data_out[69]
*223 la_data_out[6]
*224 la_data_out[70]
*225 la_data_out[71]
*226 la_data_out[72]
*227 la_data_out[73]
*228 la_data_out[74]
*229 la_data_out[75]
*230 la_data_out[76]
*231 la_data_out[77]
*232 la_data_out[78]
*233 la_data_out[79]
*234 la_data_out[7]
*235 la_data_out[80]
*236 la_data_out[81]
*237 la_data_out[82]
*238 la_data_out[83]
*239 la_data_out[84]
*240 la_data_out[85]
*241 la_data_out[86]
*242 la_data_out[87]
*243 la_data_out[88]
*244 la_data_out[89]
*245 la_data_out[8]
*246 la_data_out[90]
*247 la_data_out[91]
*248 la_data_out[92]
*249 la_data_out[93]
*250 la_data_out[94]
*251 la_data_out[95]
*252 la_data_out[96]
*253 la_data_out[97]
*254 la_data_out[98]
*255 la_data_out[99]
*256 la_data_out[9]
*265 wb_clk_i
*266 wb_rst_i
*267 mprj

*PORTS
la_data_in[0] I
la_data_in[100] I
la_data_in[101] I
la_data_in[102] I
la_data_in[103] I
la_data_in[104] I
la_data_in[105] I
la_data_in[106] I
la_data_in[107] I
la_data_in[108] I
la_data_in[109] I
la_data_in[10] I
la_data_in[110] I
la_data_in[111] I
la_data_in[112] I
la_data_in[113] I
la_data_in[114] I
la_data_in[115] I
la_data_in[116] I
la_data_in[117] I
la_data_in[118] I
la_data_in[119] I
la_data_in[11] I
la_data_in[120] I
la_data_in[121] I
la_data_in[122] I
la_data_in[123] I
la_data_in[124] I
la_data_in[125] I
la_data_in[126] I
la_data_in[127] I
la_data_in[12] I
la_data_in[13] I
la_data_in[14] I
la_data_in[15] I
la_data_in[16] I
la_data_in[17] I
la_data_in[18] I
la_data_in[19] I
la_data_in[1] I
la_data_in[20] I
la_data_in[21] I
la_data_in[22] I
la_data_in[23] I
la_data_in[24] I
la_data_in[25] I
la_data_in[26] I
la_data_in[27] I
la_data_in[28] I
la_data_in[29] I
la_data_in[2] I
la_data_in[30] I
la_data_in[31] I
la_data_in[32] I
la_data_in[33] I
la_data_in[34] I
la_data_in[35] I
la_data_in[36] I
la_data_in[37] I
la_data_in[38] I
la_data_in[39] I
la_data_in[3] I
la_data_in[40] I
la_data_in[41] I
la_data_in[42] I
la_data_in[43] I
la_data_in[44] I
la_data_in[45] I
la_data_in[46] I
la_data_in[47] I
la_data_in[48] I
la_data_in[49] I
la_data_in[4] I
la_data_in[50] I
la_data_in[51] I
la_data_in[52] I
la_data_in[53] I
la_data_in[54] I
la_data_in[55] I
la_data_in[56] I
la_data_in[57] I
la_data_in[58] I
la_data_in[59] I
la_data_in[5] I
la_data_in[60] I
la_data_in[61] I
la_data_in[62] I
la_data_in[63] I
la_data_in[64] I
la_data_in[65] I
la_data_in[66] I
la_data_in[67] I
la_data_in[68] I
la_data_in[69] I
la_data_in[6] I
la_data_in[70] I
la_data_in[71] I
la_data_in[72] I
la_data_in[73] I
la_data_in[74] I
la_data_in[75] I
la_data_in[76] I
la_data_in[77] I
la_data_in[78] I
la_data_in[79] I
la_data_in[7] I
la_data_in[80] I
la_data_in[81] I
la_data_in[82] I
la_data_in[83] I
la_data_in[84] I
la_data_in[85] I
la_data_in[86] I
la_data_in[87] I
la_data_in[88] I
la_data_in[89] I
la_data_in[8] I
la_data_in[90] I
la_data_in[91] I
la_data_in[92] I
la_data_in[93] I
la_data_in[94] I
la_data_in[95] I
la_data_in[96] I
la_data_in[97] I
la_data_in[98] I
la_data_in[99] I
la_data_in[9] I
la_data_out[0] O
la_data_out[100] O
la_data_out[101] O
la_data_out[102] O
la_data_out[103] O
la_data_out[104] O
la_data_out[105] O
la_data_out[106] O
la_data_out[107] O
la_data_out[108] O
la_data_out[109] O
la_data_out[10] O
la_data_out[110] O
la_data_out[111] O
la_data_out[112] O
la_data_out[113] O
la_data_out[114] O
la_data_out[115] O
la_data_out[116] O
la_data_out[117] O
la_data_out[118] O
la_data_out[119] O
la_data_out[11] O
la_data_out[120] O
la_data_out[121] O
la_data_out[122] O
la_data_out[123] O
la_data_out[124] O
la_data_out[125] O
la_data_out[126] O
la_data_out[127] O
la_data_out[12] O
la_data_out[13] O
la_data_out[14] O
la_data_out[15] O
la_data_out[16] O
la_data_out[17] O
la_data_out[18] O
la_data_out[19] O
la_data_out[1] O
la_data_out[20] O
la_data_out[21] O
la_data_out[22] O
la_data_out[23] O
la_data_out[24] O
la_data_out[25] O
la_data_out[26] O
la_data_out[27] O
la_data_out[28] O
la_data_out[29] O
la_data_out[2] O
la_data_out[30] O
la_data_out[31] O
la_data_out[32] O
la_data_out[33] O
la_data_out[34] O
la_data_out[35] O
la_data_out[36] O
la_data_out[37] O
la_data_out[38] O
la_data_out[39] O
la_data_out[3] O
la_data_out[40] O
la_data_out[41] O
la_data_out[42] O
la_data_out[43] O
la_data_out[44] O
la_data_out[45] O
la_data_out[46] O
la_data_out[47] O
la_data_out[48] O
la_data_out[49] O
la_data_out[4] O
la_data_out[50] O
la_data_out[51] O
la_data_out[52] O
la_data_out[53] O
la_data_out[54] O
la_data_out[55] O
la_data_out[56] O
la_data_out[57] O
la_data_out[58] O
la_data_out[59] O
la_data_out[5] O
la_data_out[60] O
la_data_out[61] O
la_data_out[62] O
la_data_out[63] O
la_data_out[64] O
la_data_out[65] O
la_data_out[66] O
la_data_out[67] O
la_data_out[68] O
la_data_out[69] O
la_data_out[6] O
la_data_out[70] O
la_data_out[71] O
la_data_out[72] O
la_data_out[73] O
la_data_out[74] O
la_data_out[75] O
la_data_out[76] O
la_data_out[77] O
la_data_out[78] O
la_data_out[79] O
la_data_out[7] O
la_data_out[80] O
la_data_out[81] O
la_data_out[82] O
la_data_out[83] O
la_data_out[84] O
la_data_out[85] O
la_data_out[86] O
la_data_out[87] O
la_data_out[88] O
la_data_out[89] O
la_data_out[8] O
la_data_out[90] O
la_data_out[91] O
la_data_out[92] O
la_data_out[93] O
la_data_out[94] O
la_data_out[95] O
la_data_out[96] O
la_data_out[97] O
la_data_out[98] O
la_data_out[99] O
la_data_out[9] O
wb_clk_i I
wb_rst_i I

*D_NET *1 0.0741217
*CONN
*P la_data_in[0] I
*I *267:la_data_in I *D user_proj_example
*CAP
1 la_data_in[0] 0.000716846
2 *267:la_data_in 6.91379e-05
3 *1:9 0.0201947
4 *1:7 0.0208424
5 *1:7 *172:11 0
6 *1:9 *129:6 0.00408856
7 *1:9 *140:11 0
8 *1:9 *151:15 0
9 *1:9 *160:11 0
10 *1:9 *161:11 0.000370027
11 *1:9 *162:11 0.000552247
12 *1:9 *163:11 0.000811274
13 *1:9 *164:11 0.00125041
14 *1:9 *165:11 0.0132042
15 *1:9 *167:19 0.00491129
16 *1:9 *256:6 0.00711065
*RES
1 la_data_in[0] *1:7 20.7496 
2 *1:7 *1:9 95.8403 
3 *1:9 *267:la_data_in 9.48107 
*END

*D_NET *129 0.104736
*CONN
*P la_data_out[0] O
*I *267:la_data_out[0] O *D user_proj_example
*CAP
1 la_data_out[0] 0.000871834
2 *267:la_data_out[0] 0
3 *129:6 0.0139278
4 *129:4 0.0130559
5 la_data_out[0] *170:15 0
6 *129:6 *190:6 0.0426019
7 *129:6 *256:6 0.0301904
8 *1:9 *129:6 0.00408856
*RES
1 *267:la_data_out[0] *129:4 8 
2 *129:4 *129:6 92.9208 
3 *129:6 la_data_out[0] 23.5668 
*END

*D_NET *130 0.028392
*CONN
*P la_data_out[100] O
*I *267:la_data_out[100] O *D user_proj_example
*CAP
1 la_data_out[100] 0.000359404
2 *267:la_data_out[100] 0.00545732
3 *130:11 0.00581672
4 la_data_out[100] *136:11 0.00021153
5 *130:11 *134:11 4.12427e-06
6 *130:11 *135:13 0.00162794
7 *130:11 *137:11 0.000329547
8 *130:11 *250:15 0.00404789
9 *130:11 *255:11 0.0105375
*RES
1 *267:la_data_out[100] *130:11 48.0511 
2 *130:11 la_data_out[100] 14.8254 
*END

*D_NET *131 0.0353067
*CONN
*P la_data_out[101] O
*I *267:la_data_out[101] O *D user_proj_example
*CAP
1 la_data_out[101] 0.00293376
2 *267:la_data_out[101] 0.000804576
3 *131:9 0.00373833
4 la_data_out[101] la_data_out[102] 0.0129212
5 la_data_out[101] la_data_out[98] 0.00961666
6 la_data_out[101] *133:11 0.000500522
7 la_data_out[101] *136:11 0.00451705
8 la_data_out[101] *249:21 0.000274565
*RES
1 *267:la_data_out[101] *131:9 24.675 
2 *131:9 la_data_out[101] 37.6833 
*END

*D_NET *132 0.0283012
*CONN
*P la_data_out[102] O
*I *267:la_data_out[102] O *D user_proj_example
*CAP
1 la_data_out[102] 0.00550266
2 *267:la_data_out[102] 0.000848272
3 *132:9 0.00635093
4 la_data_out[102] *136:11 0.00109563
5 la_data_out[102] *253:19 0.0015825
6 *132:9 la_data_out[94] 0
7 *132:9 *250:15 0
8 la_data_out[101] la_data_out[102] 0.0129212
*RES
1 *267:la_data_out[102] *132:9 25.3793 
2 *132:9 la_data_out[102] 36.6446 
*END

*D_NET *133 0.0363496
*CONN
*P la_data_out[103] O
*I *267:la_data_out[103] O *D user_proj_example
*CAP
1 la_data_out[103] 9.58152e-05
2 *267:la_data_out[103] 0.00303454
3 *133:11 0.00313035
4 *133:11 la_data_out[95] 0
5 *133:11 la_data_out[96] 0.00201098
6 *133:11 la_data_out[98] 0.00540211
7 *133:11 la_data_out[99] 0.00116246
8 *133:11 *134:11 0.0125546
9 *133:11 *136:11 0.00837146
10 *133:11 *253:17 5.49449e-05
11 *133:11 *255:11 3.18258e-05
12 la_data_out[101] *133:11 0.000500522
*RES
1 *267:la_data_out[103] *133:11 49.8081 
2 *133:11 la_data_out[103] 9.87464 
*END

*D_NET *134 0.03277
*CONN
*P la_data_out[104] O
*I *267:la_data_out[104] O *D user_proj_example
*CAP
1 la_data_out[104] 7.77039e-05
2 *267:la_data_out[104] 0.00308573
3 *134:11 0.00316343
4 *134:11 la_data_out[96] 2.75733e-06
5 *134:11 *135:13 0.0121994
6 *134:11 *136:11 0.000941579
7 *134:11 *255:11 0.00074067
8 *130:11 *134:11 4.12427e-06
9 *133:11 *134:11 0.0125546
*RES
1 *267:la_data_out[104] *134:11 47.9405 
2 *134:11 la_data_out[104] 9.48107 
*END

*D_NET *135 0.0302486
*CONN
*P la_data_out[105] O
*I *267:la_data_out[105] O *D user_proj_example
*CAP
1 la_data_out[105] 0.000119599
2 *267:la_data_out[105] 0.00315448
3 *135:13 0.00327408
4 *135:13 *136:11 0.000266909
5 *135:13 *137:11 0.00112187
6 *135:13 *138:11 0.00739037
7 *135:13 *142:11 0.000973956
8 *135:13 *255:17 0.000119988
9 *130:11 *135:13 0.00162794
10 *134:11 *135:13 0.0121994
*RES
1 *267:la_data_out[105] *135:13 46.3037 
2 *135:13 la_data_out[105] 10.1854 
*END

*D_NET *136 0.0306357
*CONN
*P la_data_out[106] O
*I *267:la_data_out[106] O *D user_proj_example
*CAP
1 la_data_out[106] 4.49146e-05
2 *267:la_data_out[106] 0.00318508
3 *136:11 0.00323
4 *136:11 *139:11 0.0071766
5 *136:11 *142:11 0.00159492
6 la_data_out[100] *136:11 0.00021153
7 la_data_out[101] *136:11 0.00451705
8 la_data_out[102] *136:11 0.00109563
9 *133:11 *136:11 0.00837146
10 *134:11 *136:11 0.000941579
11 *135:13 *136:11 0.000266909
*RES
1 *267:la_data_out[106] *136:11 47.9281 
2 *136:11 la_data_out[106] 9.02536 
*END

*D_NET *137 0.0233479
*CONN
*P la_data_out[107] O
*I *267:la_data_out[107] O *D user_proj_example
*CAP
1 la_data_out[107] 0.000193273
2 *267:la_data_out[107] 0.00526135
3 *137:11 0.00545462
4 la_data_out[107] *144:11 0
5 *137:11 *138:11 0.0109873
6 *137:11 *143:13 0
7 *130:11 *137:11 0.000329547
8 *135:13 *137:11 0.00112187
*RES
1 *267:la_data_out[107] *137:11 44.6338 
2 *137:11 la_data_out[107] 11.5939 
*END

*D_NET *138 0.0280034
*CONN
*P la_data_out[108] O
*I *267:la_data_out[108] O *D user_proj_example
*CAP
1 la_data_out[108] 0.000124643
2 *267:la_data_out[108] 0.00319772
3 *138:11 0.00332236
4 la_data_out[108] *145:11 8.0687e-05
5 *138:11 *142:11 0.00290033
6 *138:11 *143:13 0
7 *135:13 *138:11 0.00739037
8 *137:11 *138:11 0.0109873
*RES
1 *267:la_data_out[108] *138:11 44.737 
2 *138:11 la_data_out[108] 10.8896 
*END

*D_NET *139 0.0216202
*CONN
*P la_data_out[109] O
*I *267:la_data_out[109] O *D user_proj_example
*CAP
1 la_data_out[109] 4.53735e-05
2 *267:la_data_out[109] 0.00504885
3 *139:11 0.00509422
4 *139:11 *142:11 0.000512503
5 *139:11 *144:11 0.0037427
6 *136:11 *139:11 0.0071766
*RES
1 *267:la_data_out[109] *139:11 47.7904 
2 *139:11 la_data_out[109] 9.02536 
*END

*D_NET *140 0.0688673
*CONN
*P la_data_out[10] O
*I *267:la_data_out[10] O *D user_proj_example
*CAP
1 la_data_out[10] 0.000372393
2 *267:la_data_out[10] 0.00693511
3 *140:19 0.010159
4 *140:17 0.00984546
5 *140:11 0.00699398
6 la_data_out[10] *173:15 0
7 la_data_out[10] *182:9 0
8 *140:11 *151:15 0.0127745
9 *140:11 *151:19 0.000351932
10 *140:11 *160:11 0.00123375
11 *140:11 *166:11 0.000453345
12 *140:11 *168:11 0
13 *140:19 *151:19 0.0140358
14 *140:19 *151:23 0.00247071
15 *140:19 *166:11 0.00021536
16 *140:19 *167:15 0.000548821
17 *140:19 *169:15 0.00040518
18 *140:19 *172:11 0.00040518
19 *140:19 *175:13 0.00166679
20 *1:9 *140:11 0
*RES
1 *267:la_data_out[10] *140:11 49.3556 
2 *140:11 *140:17 24.0254 
3 *140:17 *140:19 298.866 
4 *140:19 la_data_out[10] 21.235 
*END

*D_NET *141 0.0152798
*CONN
*P la_data_out[110] O
*I *267:la_data_out[110] O *D user_proj_example
*CAP
1 la_data_out[110] 0.000671802
2 *267:la_data_out[110] 0.00696808
3 *141:8 0.00763988
4 *141:8 *143:13 0
*RES
1 *267:la_data_out[110] *141:8 38.596 
2 *141:8 la_data_out[110] 14.1582 
*END

*D_NET *142 0.0207294
*CONN
*P la_data_out[111] O
*I *267:la_data_out[111] O *D user_proj_example
*CAP
1 la_data_out[111] 8.87657e-05
2 *267:la_data_out[111] 0.00406471
3 *142:11 0.00415347
4 *142:11 *143:13 0
5 *142:11 *144:11 0.0011139
6 *142:11 *145:11 0.00532682
7 *135:13 *142:11 0.000973956
8 *136:11 *142:11 0.00159492
9 *138:11 *142:11 0.00290033
10 *139:11 *142:11 0.000512503
*RES
1 *267:la_data_out[111] *142:11 44.2565 
2 *142:11 la_data_out[111] 9.48107 
*END

*D_NET *143 0.0146871
*CONN
*P la_data_out[112] O
*I *267:la_data_out[112] O *D user_proj_example
*CAP
1 la_data_out[112] 0.000400405
2 *267:la_data_out[112] 0.00659977
3 *143:13 0.00700017
4 *143:13 la_data_out[117] 0.00068676
5 *137:11 *143:13 0
6 *138:11 *143:13 0
7 *141:8 *143:13 0
8 *142:11 *143:13 0
*RES
1 *267:la_data_out[112] *143:13 44.5268 
2 *143:13 la_data_out[112] 8.52393 
*END

*D_NET *144 0.0260074
*CONN
*P la_data_out[113] O
*I *267:la_data_out[113] O *D user_proj_example
*CAP
1 la_data_out[113] 4.49146e-05
2 *267:la_data_out[113] 0.00309049
3 *144:11 0.0031354
4 *144:11 *145:11 0.00899592
5 *144:11 *146:11 0.0011186
6 *144:11 *147:11 0.00476549
7 la_data_out[107] *144:11 0
8 *139:11 *144:11 0.0037427
9 *142:11 *144:11 0.0011139
*RES
1 *267:la_data_out[113] *144:11 44.5488 
2 *144:11 la_data_out[113] 9.02536 
*END

*D_NET *145 0.0229272
*CONN
*P la_data_out[114] O
*I *267:la_data_out[114] O *D user_proj_example
*CAP
1 la_data_out[114] 8.89659e-05
2 *267:la_data_out[114] 0.00370246
3 *145:11 0.00379143
4 *145:11 *147:11 0.000940894
5 la_data_out[108] *145:11 8.0687e-05
6 *142:11 *145:11 0.00532682
7 *144:11 *145:11 0.00899592
*RES
1 *267:la_data_out[114] *145:11 43.1576 
2 *145:11 la_data_out[114] 9.87464 
*END

*D_NET *146 0.0186252
*CONN
*P la_data_out[115] O
*I *267:la_data_out[115] O *D user_proj_example
*CAP
1 la_data_out[115] 8.66535e-05
2 *267:la_data_out[115] 0.00463779
3 *146:11 0.00472444
4 *146:11 *147:11 0.00805775
5 *144:11 *146:11 0.0011186
*RES
1 *267:la_data_out[115] *146:11 44.1542 
2 *146:11 la_data_out[115] 9.97821 
*END

*D_NET *147 0.0208445
*CONN
*P la_data_out[116] O
*I *267:la_data_out[116] O *D user_proj_example
*CAP
1 la_data_out[116] 4.49146e-05
2 *267:la_data_out[116] 0.00349527
3 *147:11 0.00354019
4 *144:11 *147:11 0.00476549
5 *145:11 *147:11 0.000940894
6 *146:11 *147:11 0.00805775
*RES
1 *267:la_data_out[116] *147:11 42.5442 
2 *147:11 la_data_out[116] 9.02536 
*END

*D_NET *148 0.0204804
*CONN
*P la_data_out[117] O
*I *267:la_data_out[117] O *D user_proj_example
*CAP
1 la_data_out[117] 0.00333924
2 *267:la_data_out[117] 0.00333924
3 la_data_out[117] la_data_out[118] 0.00760286
4 la_data_out[117] la_data_out[119] 0.00551231
5 *143:13 la_data_out[117] 0.00068676
*RES
1 *267:la_data_out[117] la_data_out[117] 49.8736 
*END

*D_NET *149 0.0165098
*CONN
*P la_data_out[118] O
*I *267:la_data_out[118] O *D user_proj_example
*CAP
1 la_data_out[118] 0.00397973
2 *267:la_data_out[118] 0.00397973
3 la_data_out[118] la_data_out[119] 0.000947458
4 la_data_out[117] la_data_out[118] 0.00760286
*RES
1 *267:la_data_out[118] la_data_out[118] 48.7961 
*END

*D_NET *150 0.019292
*CONN
*P la_data_out[119] O
*I *267:la_data_out[119] O *D user_proj_example
*CAP
1 la_data_out[119] 0.00289466
2 *267:la_data_out[119] 0.00289466
3 la_data_out[119] la_data_out[120] 0.00704295
4 la_data_out[117] la_data_out[119] 0.00551231
5 la_data_out[118] la_data_out[119] 0.000947458
*RES
1 *267:la_data_out[119] la_data_out[119] 47.8045 
*END

*D_NET *151 0.0819503
*CONN
*P la_data_out[11] O
*I *267:la_data_out[11] O *D user_proj_example
*CAP
1 la_data_out[11] 0.000350203
2 *267:la_data_out[11] 0.00287997
3 *151:23 0.00134818
4 *151:19 0.0105167
5 *151:17 0.00951869
6 *151:15 0.00287997
7 la_data_out[11] *173:23 0
8 la_data_out[11] *177:21 0
9 *151:15 *160:11 0.0105627
10 *151:19 *167:15 0.000702688
11 *151:19 *168:11 0.00034481
12 *151:19 *169:15 0.00136866
13 *151:19 *172:11 0.00136865
14 *151:19 *172:19 0.00391852
15 *151:19 *175:13 0.00282984
16 *151:23 *172:19 0.00127799
17 *151:23 *172:25 0.00188079
18 *151:23 *173:27 8.65442e-05
19 *151:23 *175:13 0.00048253
20 *1:9 *151:15 0
21 *140:11 *151:15 0.0127745
22 *140:11 *151:19 0.000351932
23 *140:19 *151:19 0.0140358
24 *140:19 *151:23 0.00247071
*RES
1 *267:la_data_out[11] *151:15 49.6787 
2 *151:15 *151:17 15 
3 *151:17 *151:19 300.057 
4 *151:19 *151:23 46.1411 
5 *151:23 la_data_out[11] 20.8829 
*END

*D_NET *152 0.0194772
*CONN
*P la_data_out[120] O
*I *267:la_data_out[120] O *D user_proj_example
*CAP
1 la_data_out[120] 0.00267832
2 *267:la_data_out[120] 0.00267832
3 la_data_out[120] la_data_out[121] 0.00666598
4 la_data_out[120] la_data_out[124] 0.000411621
5 la_data_out[119] la_data_out[120] 0.00704295
*RES
1 *267:la_data_out[120] la_data_out[120] 46.8987 
*END

*D_NET *153 0.015378
*CONN
*P la_data_out[121] O
*I *267:la_data_out[121] O *D user_proj_example
*CAP
1 la_data_out[121] 0.00333082
2 *267:la_data_out[121] 0.00333082
3 la_data_out[121] la_data_out[122] 0.000583275
4 la_data_out[121] la_data_out[123] 0.00146708
5 la_data_out[121] la_data_out[125] 0
6 la_data_out[120] la_data_out[121] 0.00666598
*RES
1 *267:la_data_out[121] la_data_out[121] 46.2118 
*END

*D_NET *154 0.0144091
*CONN
*P la_data_out[122] O
*I *267:la_data_out[122] O *D user_proj_example
*CAP
1 la_data_out[122] 0.00403553
2 *267:la_data_out[122] 0.00403553
3 la_data_out[122] la_data_out[123] 0.00575474
4 la_data_out[121] la_data_out[122] 0.000583275
*RES
1 *267:la_data_out[122] la_data_out[122] 45.1121 
*END

*D_NET *155 0.0140877
*CONN
*P la_data_out[123] O
*I *267:la_data_out[123] O *D user_proj_example
*CAP
1 la_data_out[123] 0.00343292
2 *267:la_data_out[123] 0.00343292
3 la_data_out[121] la_data_out[123] 0.00146708
4 la_data_out[122] la_data_out[123] 0.00575474
*RES
1 *267:la_data_out[123] la_data_out[123] 44.4976 
*END

*D_NET *156 0.0117304
*CONN
*P la_data_out[124] O
*I *267:la_data_out[124] O *D user_proj_example
*CAP
1 la_data_out[124] 0.00407423
2 *267:la_data_out[124] 0.00407423
3 la_data_out[124] la_data_out[125] 0.00224712
4 la_data_out[124] la_data_out[127] 0.000923161
5 la_data_out[120] la_data_out[124] 0.000411621
*RES
1 *267:la_data_out[124] la_data_out[124] 46.2876 
*END

*D_NET *157 0.0151843
*CONN
*P la_data_out[125] O
*I *267:la_data_out[125] O *D user_proj_example
*CAP
1 la_data_out[125] 0.00271129
2 *267:la_data_out[125] 0.00271129
3 la_data_out[125] la_data_out[126] 0.00482176
4 la_data_out[125] la_data_out[127] 0.00269282
5 la_data_out[121] la_data_out[125] 0
6 la_data_out[124] la_data_out[125] 0.00224712
*RES
1 *267:la_data_out[125] la_data_out[125] 46.5505 
*END

*D_NET *158 0.0119171
*CONN
*P la_data_out[126] O
*I *267:la_data_out[126] O *D user_proj_example
*CAP
1 la_data_out[126] 0.00312081
2 *267:la_data_out[126] 0.00312081
3 la_data_out[126] la_data_out[127] 0.0008537
4 la_data_out[125] la_data_out[126] 0.00482176
*RES
1 *267:la_data_out[126] la_data_out[126] 47.0914 
*END

*D_NET *159 0.0103897
*CONN
*P la_data_out[127] O
*I *267:la_data_out[127] O *D user_proj_example
*CAP
1 la_data_out[127] 0.00295999
2 *267:la_data_out[127] 0.00295999
3 la_data_out[124] la_data_out[127] 0.000923161
4 la_data_out[125] la_data_out[127] 0.00269282
5 la_data_out[126] la_data_out[127] 0.0008537
*RES
1 *267:la_data_out[127] la_data_out[127] 44.6053 
*END

*D_NET *160 0.107236
*CONN
*P la_data_out[12] O
*I *267:la_data_out[12] O *D user_proj_example
*CAP
1 la_data_out[12] 0.000500066
2 *267:la_data_out[12] 0.000340567
3 *160:11 0.00889873
4 *160:9 0.00873924
5 *160:11 *161:11 0.0438642
6 *160:11 *166:11 0.0330964
7 *1:9 *160:11 0
8 *140:11 *160:11 0.00123375
9 *151:15 *160:11 0.0105627
*RES
1 *267:la_data_out[12] *160:9 15.5193 
2 *160:9 *160:11 84.9781 
3 *160:11 la_data_out[12] 16.5239 
*END

*D_NET *161 0.106891
*CONN
*P la_data_out[13] O
*I *267:la_data_out[13] O *D user_proj_example
*CAP
1 la_data_out[13] 0.000538294
2 *267:la_data_out[13] 0.000290006
3 *161:11 0.00877603
4 *161:9 0.00852774
5 la_data_out[13] *176:15 0
6 *161:11 *162:11 0.0435765
7 *161:11 *166:11 0.000948197
8 *1:9 *161:11 0.000370027
9 *160:11 *161:11 0.0438642
*RES
1 *267:la_data_out[13] *161:9 14.3386 
2 *161:9 *161:11 84.4629 
3 *161:11 la_data_out[13] 17.2282 
*END

*D_NET *162 0.105873
*CONN
*P la_data_out[14] O
*I *267:la_data_out[14] O *D user_proj_example
*CAP
1 la_data_out[14] 0.000515142
2 *267:la_data_out[14] 0.000239446
3 *162:11 0.0085277
4 *162:9 0.00825201
5 la_data_out[14] *176:25 0.000214786
6 la_data_out[14] *185:11 0
7 *162:11 *163:11 0.043333
8 *162:11 *166:11 0.000662229
9 *1:9 *162:11 0.000552247
10 *161:11 *162:11 0.0435765
*RES
1 *267:la_data_out[14] *162:9 13.1579 
2 *162:9 *162:11 83.8619 
3 *162:11 la_data_out[14] 17.9325 
*END

*D_NET *163 0.105147
*CONN
*P la_data_out[15] O
*I *267:la_data_out[15] O *D user_proj_example
*CAP
1 la_data_out[15] 0.000498497
2 *267:la_data_out[15] 0.000188886
3 *163:11 0.008308
4 *163:9 0.00799839
5 la_data_out[15] *180:19 0
6 la_data_out[15] *186:11 0.000478999
7 *163:11 *164:11 0.0429975
8 *163:11 *166:11 0.000532113
9 *1:9 *163:11 0.000811274
10 *162:11 *163:11 0.043333
*RES
1 *267:la_data_out[15] *163:9 11.9771 
2 *163:9 *163:11 83.4325 
3 *163:11 la_data_out[15] 18.6368 
*END

*D_NET *164 0.104473
*CONN
*P la_data_out[16] O
*I *267:la_data_out[16] O *D user_proj_example
*CAP
1 la_data_out[16] 0.000636885
2 *267:la_data_out[16] 0.000158035
3 *164:11 0.00858287
4 *164:9 0.00810402
5 la_data_out[16] *187:11 0
6 *164:11 *165:11 0.0424303
7 *164:11 *166:11 0.000313315
8 *1:9 *164:11 0.00125041
9 *163:11 *164:11 0.0429975
*RES
1 *267:la_data_out[16] *164:9 11.2729 
2 *164:9 *164:11 82.7456 
3 *164:11 la_data_out[16] 19.3411 
*END

*D_NET *165 0.103862
*CONN
*P la_data_out[17] O
*I *267:la_data_out[17] O *D user_proj_example
*CAP
1 la_data_out[17] 0.000689349
2 *267:la_data_out[17] 0.000190482
3 *165:11 0.00858637
4 *165:9 0.0080875
5 *165:11 *166:11 0
6 *165:11 *167:19 0.000469142
7 *165:11 *170:19 0.030205
8 *1:9 *165:11 0.0132042
9 *164:11 *165:11 0.0424303
*RES
1 *267:la_data_out[17] *165:9 11.9979 
2 *165:9 *165:11 81.8011 
3 *165:11 la_data_out[17] 20.0454 
*END

*D_NET *166 0.0765826
*CONN
*P la_data_out[18] O
*I *267:la_data_out[18] O *D user_proj_example
*CAP
1 la_data_out[18] 0.000491108
2 *267:la_data_out[18] 0.000439593
3 *166:11 0.0130299
4 *166:9 0.0129784
5 la_data_out[18] *183:17 0
6 *166:11 *167:15 0.00104024
7 *166:11 *168:11 0
8 *166:11 *169:15 0.000789744
9 *166:11 *170:15 0
10 *166:11 *170:19 0
11 *166:11 *172:11 0.00113429
12 *166:11 *173:27 0.000597393
13 *166:11 *175:13 0.0049602
14 *166:11 *175:15 0.00204912
15 *166:11 *176:27 0.00121449
16 *166:11 *178:19 0.0016372
17 *140:11 *166:11 0.000453345
18 *140:19 *166:11 0.00021536
19 *160:11 *166:11 0.0330964
20 *161:11 *166:11 0.000948197
21 *162:11 *166:11 0.000662229
22 *163:11 *166:11 0.000532113
23 *164:11 *166:11 0.000313315
24 *165:11 *166:11 0
*RES
1 *267:la_data_out[18] *166:9 16.2236 
2 *166:9 *166:11 81.1141 
3 *166:11 la_data_out[18] 15.8196 
*END

*D_NET *167 0.109458
*CONN
*P la_data_out[19] O
*I *267:la_data_out[19] O *D user_proj_example
*CAP
1 la_data_out[19] 0.000761461
2 *267:la_data_out[19] 0.00235642
3 *167:19 0.00906985
4 *167:17 0.00830839
5 *167:15 0.00235642
6 *167:15 *168:11 2.5846e-05
7 *167:15 *169:15 0.00173385
8 *167:15 *170:15 0
9 *167:15 *179:11 0.000468441
10 *167:15 *201:11 5.74846e-05
11 *167:19 *169:19 0.034223
12 *167:19 *170:19 0.0327026
13 *167:19 *171:27 0.00764014
14 *167:19 *256:6 0.00208169
15 *1:9 *167:19 0.00491129
16 *140:19 *167:15 0.000548821
17 *151:19 *167:15 0.000702688
18 *165:11 *167:19 0.000469142
19 *166:11 *167:15 0.00104024
*RES
1 *267:la_data_out[19] *167:15 42.8201 
2 *167:15 *167:17 8 
3 *167:17 *167:19 73.3861 
4 *167:19 la_data_out[19] 21.4539 
*END

*D_NET *168 0.0890938
*CONN
*P la_data_out[1] O
*I *267:la_data_out[1] O *D user_proj_example
*CAP
1 la_data_out[1] 0.000153234
2 *267:la_data_out[1] 0.000528241
3 *168:19 0.00290762
4 *168:17 0.00301245
5 *168:11 0.014224
6 *168:9 0.0144942
7 *168:11 *179:11 0.03652
8 *168:19 *179:19 0.00900944
9 *168:19 *201:19 0.00507948
10 *168:19 *245:11 0.00279442
11 *140:11 *168:11 0
12 *151:19 *168:11 0.00034481
13 *166:11 *168:11 0
14 *167:15 *168:11 2.5846e-05
*RES
1 *267:la_data_out[1] *168:9 19.7243 
2 *168:9 *168:11 71.5829 
3 *168:11 *168:17 27.1946 
4 *168:17 *168:19 116.394 
5 *168:19 la_data_out[1] 16.3464 
*END

*D_NET *169 0.0920511
*CONN
*P la_data_out[20] O
*I *267:la_data_out[20] O *D user_proj_example
*CAP
1 la_data_out[20] 0.000802497
2 *267:la_data_out[20] 0.00315061
3 *169:19 0.0128584
4 *169:17 0.0120559
5 *169:15 0.00315061
6 la_data_out[20] *191:11 0
7 *169:15 *170:15 0.00212755
8 *169:15 *172:11 0
9 *169:15 *201:11 0.000583275
10 *169:19 *170:19 0.000827426
11 *169:19 *171:27 0.0001403
12 *169:19 *182:21 0.000949636
13 *169:19 *256:6 0.0168845
14 *140:19 *169:15 0.00040518
15 *151:19 *169:15 0.00136866
16 *166:11 *169:15 0.000789744
17 *167:15 *169:15 0.00173385
18 *167:19 *169:19 0.034223
*RES
1 *267:la_data_out[20] *169:15 49.0545 
2 *169:15 *169:17 8 
3 *169:17 *169:19 68.5776 
4 *169:19 la_data_out[20] 22.1582 
*END

*D_NET *170 0.0972155
*CONN
*P la_data_out[21] O
*I *267:la_data_out[21] O *D user_proj_example
*CAP
1 la_data_out[21] 0.00071736