*SPEF "ieee 1481-1999"
*DESIGN "user_project_wrapper"
*DATE "11:11:11 Fri 11 11, 1111"
*VENDOR "OpenRCX"
*PROGRAM "Parallel Extraction"
*VERSION "1.0"
*DESIGN_FLOW "NAME_SCOPE LOCAL" "PIN_CAP NONE"
*DIVIDER /
*DELIMITER :
*BUS_DELIMITER []
*T_UNIT 1 NS
*C_UNIT 1 PF
*R_UNIT 1 OHM
*L_UNIT 1 HENRY

*NAME_MAP
*1 la_data_in[0]
*2 la_data_in[100]
*3 la_data_in[101]
*4 la_data_in[102]
*5 la_data_in[103]
*6 la_data_in[104]
*7 la_data_in[105]
*8 la_data_in[106]
*9 la_data_in[107]
*10 la_data_in[108]
*11 la_data_in[109]
*12 la_data_in[10]
*13 la_data_in[110]
*14 la_data_in[111]
*15 la_data_in[112]
*16 la_data_in[113]
*17 la_data_in[114]
*18 la_data_in[115]
*19 la_data_in[116]
*20 la_data_in[117]
*21 la_data_in[118]
*22 la_data_in[119]
*23 la_data_in[11]
*24 la_data_in[120]
*25 la_data_in[121]
*26 la_data_in[122]
*27 la_data_in[123]
*28 la_data_in[124]
*29 la_data_in[125]
*30 la_data_in[126]
*31 la_data_in[127]
*32 la_data_in[12]
*33 la_data_in[13]
*34 la_data_in[14]
*35 la_data_in[15]
*36 la_data_in[16]
*37 la_data_in[17]
*38 la_data_in[18]
*39 la_data_in[19]
*40 la_data_in[1]
*41 la_data_in[20]
*42 la_data_in[21]
*43 la_data_in[22]
*44 la_data_in[23]
*45 la_data_in[24]
*46 la_data_in[25]
*47 la_data_in[26]
*48 la_data_in[27]
*49 la_data_in[28]
*50 la_data_in[29]
*51 la_data_in[2]
*52 la_data_in[30]
*53 la_data_in[31]
*54 la_data_in[32]
*55 la_data_in[33]
*56 la_data_in[34]
*57 la_data_in[35]
*58 la_data_in[36]
*59 la_data_in[37]
*60 la_data_in[38]
*61 la_data_in[39]
*62 la_data_in[3]
*63 la_data_in[40]
*64 la_data_in[41]
*65 la_data_in[42]
*66 la_data_in[43]
*67 la_data_in[44]
*68 la_data_in[45]
*69 la_data_in[46]
*70 la_data_in[47]
*71 la_data_in[48]
*72 la_data_in[49]
*73 la_data_in[4]
*74 la_data_in[50]
*75 la_data_in[51]
*76 la_data_in[52]
*77 la_data_in[53]
*78 la_data_in[54]
*79 la_data_in[55]
*80 la_data_in[56]
*81 la_data_in[57]
*82 la_data_in[58]
*83 la_data_in[59]
*84 la_data_in[5]
*85 la_data_in[60]
*86 la_data_in[61]
*87 la_data_in[62]
*88 la_data_in[63]
*89 la_data_in[64]
*90 la_data_in[65]
*91 la_data_in[66]
*92 la_data_in[67]
*93 la_data_in[68]
*94 la_data_in[69]
*95 la_data_in[6]
*96 la_data_in[70]
*97 la_data_in[71]
*98 la_data_in[72]
*99 la_data_in[73]
*100 la_data_in[74]
*101 la_data_in[75]
*102 la_data_in[76]
*103 la_data_in[77]
*104 la_data_in[78]
*105 la_data_in[79]
*106 la_data_in[7]
*107 la_data_in[80]
*108 la_data_in[81]
*109 la_data_in[82]
*110 la_data_in[83]
*111 la_data_in[84]
*112 la_data_in[85]
*113 la_data_in[86]
*114 la_data_in[87]
*115 la_data_in[88]
*116 la_data_in[89]
*117 la_data_in[8]
*118 la_data_in[90]
*119 la_data_in[91]
*120 la_data_in[92]
*121 la_data_in[93]
*122 la_data_in[94]
*123 la_data_in[95]
*124 la_data_in[96]
*125 la_data_in[97]
*126 la_data_in[98]
*127 la_data_in[99]
*128 la_data_in[9]
*129 la_data_out[0]
*130 la_data_out[100]
*131 la_data_out[101]
*132 la_data_out[102]
*133 la_data_out[103]
*134 la_data_out[104]
*135 la_data_out[105]
*136 la_data_out[106]
*137 la_data_out[107]
*138 la_data_out[108]
*139 la_data_out[109]
*140 la_data_out[10]
*141 la_data_out[110]
*142 la_data_out[111]
*143 la_data_out[112]
*144 la_data_out[113]
*145 la_data_out[114]
*146 la_data_out[115]
*147 la_data_out[116]
*148 la_data_out[117]
*149 la_data_out[118]
*150 la_data_out[119]
*151 la_data_out[11]
*152 la_data_out[120]
*153 la_data_out[121]
*154 la_data_out[122]
*155 la_data_out[123]
*156 la_data_out[124]
*157 la_data_out[125]
*158 la_data_out[126]
*159 la_data_out[127]
*160 la_data_out[12]
*161 la_data_out[13]
*162 la_data_out[14]
*163 la_data_out[15]
*164 la_data_out[16]
*165 la_data_out[17]
*166 la_data_out[18]
*167 la_data_out[19]
*168 la_data_out[1]
*169 la_data_out[20]
*170 la_data_out[21]
*171 la_data_out[22]
*172 la_data_out[23]
*173 la_data_out[24]
*174 la_data_out[25]
*175 la_data_out[26]
*176 la_data_out[27]
*177 la_data_out[28]
*178 la_data_out[29]
*179 la_data_out[2]
*180 la_data_out[30]
*181 la_data_out[31]
*182 la_data_out[32]
*183 la_data_out[33]
*184 la_data_out[34]
*185 la_data_out[35]
*186 la_data_out[36]
*187 la_data_out[37]
*188 la_data_out[38]
*189 la_data_out[39]
*190 la_data_out[3]
*191 la_data_out[40]
*192 la_data_out[41]
*193 la_data_out[42]
*194 la_data_out[43]
*195 la_data_out[44]
*196 la_data_out[45]
*197 la_data_out[46]
*198 la_data_out[47]
*199 la_data_out[48]
*200 la_data_out[49]
*201 la_data_out[4]
*202 la_data_out[50]
*203 la_data_out[51]
*204 la_data_out[52]
*205 la_data_out[53]
*206 la_data_out[54]
*207 la_data_out[55]
*208 la_data_out[56]
*209 la_data_out[57]
*210 la_data_out[58]
*211 la_data_out[59]
*212 la_data_out[5]
*213 la_data_out[60]
*214 la_data_out[61]
*215 la_data_out[62]
*216 la_data_out[63]
*217 la_data_out[64]
*218 la_data_out[65]
*219 la_data_out[66]
*220 la_data_out[67]
*221 la_data_out[68]
*222 la_data_out[69]
*223 la_data_out[6]
*224 la_data_out[70]
*225 la_data_out[71]
*226 la_data_out[72]
*227 la_data_out[73]
*228 la_data_out[74]
*229 la_data_out[75]
*230 la_data_out[76]
*231 la_data_out[77]
*232 la_data_out[78]
*233 la_data_out[79]
*234 la_data_out[7]
*235 la_data_out[80]
*236 la_data_out[81]
*237 la_data_out[82]
*238 la_data_out[83]
*239 la_data_out[84]
*240 la_data_out[85]
*241 la_data_out[86]
*242 la_data_out[87]
*243 la_data_out[88]
*244 la_data_out[89]
*245 la_data_out[8]
*246 la_data_out[90]
*247 la_data_out[91]
*248 la_data_out[92]
*249 la_data_out[93]
*250 la_data_out[94]
*251 la_data_out[95]
*252 la_data_out[96]
*253 la_data_out[97]
*254 la_data_out[98]
*255 la_data_out[99]
*256 la_data_out[9]
*265 wb_clk_i
*266 wb_rst_i
*267 mprj

*PORTS
la_data_in[0] I
la_data_in[100] I
la_data_in[101] I
la_data_in[102] I
la_data_in[103] I
la_data_in[104] I
la_data_in[105] I
la_data_in[106] I
la_data_in[107] I
la_data_in[108] I
la_data_in[109] I
la_data_in[10] I
la_data_in[110] I
la_data_in[111] I
la_data_in[112] I
la_data_in[113] I
la_data_in[114] I
la_data_in[115] I
la_data_in[116] I
la_data_in[117] I
la_data_in[118] I
la_data_in[119] I
la_data_in[11] I
la_data_in[120] I
la_data_in[121] I
la_data_in[122] I
la_data_in[123] I
la_data_in[124] I
la_data_in[125] I
la_data_in[126] I
la_data_in[127] I
la_data_in[12] I
la_data_in[13] I
la_data_in[14] I
la_data_in[15] I
la_data_in[16] I
la_data_in[17] I
la_data_in[18] I
la_data_in[19] I
la_data_in[1] I
la_data_in[20] I
la_data_in[21] I
la_data_in[22] I
la_data_in[23] I
la_data_in[24] I
la_data_in[25] I
la_data_in[26] I
la_data_in[27] I
la_data_in[28] I
la_data_in[29] I
la_data_in[2] I
la_data_in[30] I
la_data_in[31] I
la_data_in[32] I
la_data_in[33] I
la_data_in[34] I
la_data_in[35] I
la_data_in[36] I
la_data_in[37] I
la_data_in[38] I
la_data_in[39] I
la_data_in[3] I
la_data_in[40] I
la_data_in[41] I
la_data_in[42] I
la_data_in[43] I
la_data_in[44] I
la_data_in[45] I
la_data_in[46] I
la_data_in[47] I
la_data_in[48] I
la_data_in[49] I
la_data_in[4] I
la_data_in[50] I
la_data_in[51] I
la_data_in[52] I
la_data_in[53] I
la_data_in[54] I
la_data_in[55] I
la_data_in[56] I
la_data_in[57] I
la_data_in[58] I
la_data_in[59] I
la_data_in[5] I
la_data_in[60] I
la_data_in[61] I
la_data_in[62] I
la_data_in[63] I
la_data_in[64] I
la_data_in[65] I
la_data_in[66] I
la_data_in[67] I
la_data_in[68] I
la_data_in[69] I
la_data_in[6] I
la_data_in[70] I
la_data_in[71] I
la_data_in[72] I
la_data_in[73] I
la_data_in[74] I
la_data_in[75] I
la_data_in[76] I
la_data_in[77] I
la_data_in[78] I
la_data_in[79] I
la_data_in[7] I
la_data_in[80] I
la_data_in[81] I
la_data_in[82] I
la_data_in[83] I
la_data_in[84] I
la_data_in[85] I
la_data_in[86] I
la_data_in[87] I
la_data_in[88] I
la_data_in[89] I
la_data_in[8] I
la_data_in[90] I
la_data_in[91] I
la_data_in[92] I
la_data_in[93] I
la_data_in[94] I
la_data_in[95] I
la_data_in[96] I
la_data_in[97] I
la_data_in[98] I
la_data_in[99] I
la_data_in[9] I
la_data_out[0] O
la_data_out[100] O
la_data_out[101] O
la_data_out[102] O
la_data_out[103] O
la_data_out[104] O
la_data_out[105] O
la_data_out[106] O
la_data_out[107] O
la_data_out[108] O
la_data_out[109] O
la_data_out[10] O
la_data_out[110] O
la_data_out[111] O
la_data_out[112] O
la_data_out[113] O
la_data_out[114] O
la_data_out[115] O
la_data_out[116] O
la_data_out[117] O
la_data_out[118] O
la_data_out[119] O
la_data_out[11] O
la_data_out[120] O
la_data_out[121] O
la_data_out[122] O
la_data_out[123] O
la_data_out[124] O
la_data_out[125] O
la_data_out[126] O
la_data_out[127] O
la_data_out[12] O
la_data_out[13] O
la_data_out[14] O
la_data_out[15] O
la_data_out[16] O
la_data_out[17] O
la_data_out[18] O
la_data_out[19] O
la_data_out[1] O
la_data_out[20] O
la_data_out[21] O
la_data_out[22] O
la_data_out[23] O
la_data_out[24] O
la_data_out[25] O
la_data_out[26] O
la_data_out[27] O
la_data_out[28] O
la_data_out[29] O
la_data_out[2] O
la_data_out[30] O
la_data_out[31] O
la_data_out[32] O
la_data_out[33] O
la_data_out[34] O
la_data_out[35] O
la_data_out[36] O
la_data_out[37] O
la_data_out[38] O
la_data_out[39] O
la_data_out[3] O
la_data_out[40] O
la_data_out[41] O
la_data_out[42] O
la_data_out[43] O
la_data_out[44] O
la_data_out[45] O
la_data_out[46] O
la_data_out[47] O
la_data_out[48] O
la_data_out[49] O
la_data_out[4] O
la_data_out[50] O
la_data_out[51] O
la_data_out[52] O
la_data_out[53] O
la_data_out[54] O
la_data_out[55] O
la_data_out[56] O
la_data_out[57] O
la_data_out[58] O
la_data_out[59] O
la_data_out[5] O
la_data_out[60] O
la_data_out[61] O
la_data_out[62] O
la_data_out[63] O
la_data_out[64] O
la_data_out[65] O
la_data_out[66] O
la_data_out[67] O
la_data_out[68] O
la_data_out[69] O
la_data_out[6] O
la_data_out[70] O
la_data_out[71] O
la_data_out[72] O
la_data_out[73] O
la_data_out[74] O
la_data_out[75] O
la_data_out[76] O
la_data_out[77] O
la_data_out[78] O
la_data_out[79] O
la_data_out[7] O
la_data_out[80] O
la_data_out[81] O
la_data_out[82] O
la_data_out[83] O
la_data_out[84] O
la_data_out[85] O
la_data_out[86] O
la_data_out[87] O
la_data_out[88] O
la_data_out[89] O
la_data_out[8] O
la_data_out[90] O
la_data_out[91] O
la_data_out[92] O
la_data_out[93] O
la_data_out[94] O
la_data_out[95] O
la_data_out[96] O
la_data_out[97] O
la_data_out[98] O
la_data_out[99] O
la_data_out[9] O
wb_clk_i I
wb_rst_i I

*D_NET *1 0.0653221
*CONN
*P la_data_in[0] I
*I *267:la_data_in I *D user_proj_example
*CAP
1 la_data_in[0] 0.000598024
2 *267:la_data_in 6.24221e-05
3 *1:9 0.0169103
4 *1:7 0.0174459
5 *1:7 *172:17 0
6 *1:9 *129:6 0.00420846
7 *1:9 *140:17 0
8 *1:9 *151:17 0
9 *1:9 *160:11 0
10 *1:9 *161:11 0.000395239
11 *1:9 *162:11 0.000533975
12 *1:9 *163:11 0.000802643
13 *1:9 *164:11 0.00113929
14 *1:9 *165:11 0.0111657
15 *1:9 *167:19 0.00416073
16 *1:9 *256:6 0.00789938
*RES
1 la_data_in[0] *1:7 9.7325 
2 *1:7 *1:9 65.0345 
3 *1:9 *267:la_data_in 1.5725 
*END

*D_NET *129 0.0881681
*CONN
*P la_data_out[0] O
*I *267:la_data_out[0] O *D user_proj_example
*CAP
1 la_data_out[0] 0.000727433
2 *267:la_data_out[0] 0
3 *129:6 0.011183
4 *129:4 0.0104555
5 la_data_out[0] *170:17 0
6 *129:6 *190:6 0.036051
7 *129:6 *256:6 0.0255427
8 *1:9 *129:6 0.00420846
*RES
1 *267:la_data_out[0] *129:4 0.5 
2 *129:4 *129:6 63.0534 
3 *129:6 la_data_out[0] 11.7725 
*END

*D_NET *130 0.0239268
*CONN
*P la_data_out[100] O
*I *267:la_data_out[100] O *D user_proj_example
*CAP
1 la_data_out[100] 0.00484715
2 *267:la_data_out[100] 0.00484715
3 la_data_out[100] la_data_out[104] 3.99277e-06
4 la_data_out[100] la_data_out[105] 0.0016153
5 la_data_out[100] la_data_out[107] 0.000281
6 la_data_out[100] la_data_out[94] 0.00342427
7 la_data_out[100] *255:17 0.00890791
*RES
1 *267:la_data_out[100] la_data_out[100] 33.6552 
*END

*D_NET *131 0.0296673
*CONN
*P la_data_out[101] O
*I *267:la_data_out[101] O *D user_proj_example
*CAP
1 la_data_out[101] 0.00302774
2 *267:la_data_out[101] 0.00302774
3 la_data_out[101] la_data_out[102] 0.010919
4 la_data_out[101] la_data_out[103] 0.000454803
5 la_data_out[101] la_data_out[106] 0.00381697
6 la_data_out[101] la_data_out[93] 0.000291771
7 la_data_out[101] la_data_out[98] 0.00812929
*RES
1 *267:la_data_out[101] la_data_out[101] 33.3074 
*END

*D_NET *132 0.023959
*CONN
*P la_data_out[102] O
*I *267:la_data_out[102] O *D user_proj_example
*CAP
1 la_data_out[102] 0.00535219
2 *267:la_data_out[102] 0.00535219
3 la_data_out[102] la_data_out[106] 0.00100048
4 la_data_out[102] la_data_out[94] 0
5 la_data_out[102] la_data_out[97] 0.00133512
6 la_data_out[101] la_data_out[102] 0.010919
*RES
1 *267:la_data_out[102] la_data_out[102] 33.0691 
*END

*D_NET *133 0.0307246
*CONN
*P la_data_out[103] O
*I *267:la_data_out[103] O *D user_proj_example
*CAP
1 la_data_out[103] 0.00250064
2 *267:la_data_out[103] 0.00250064
3 la_data_out[103] la_data_out[104] 0.0106125
4 la_data_out[103] la_data_out[106] 0.00707595
5 la_data_out[103] la_data_out[95] 0
6 la_data_out[103] la_data_out[96] 0.00169747
7 la_data_out[103] la_data_out[98] 0.0045651
8 la_data_out[103] la_data_out[99] 0.00123531
9 la_data_out[103] *253:17 5.16945e-05
10 la_data_out[103] *255:17 3.04209e-05
11 la_data_out[101] la_data_out[103] 0.000454803
*RES
1 *267:la_data_out[103] la_data_out[103] 31.4012 
*END

*D_NET *134 0.027528
*CONN
*P la_data_out[104] O
*I *267:la_data_out[104] O *D user_proj_example
*CAP
1 la_data_out[104] 0.00250159
2 *267:la_data_out[104] 0.00250159
3 la_data_out[104] la_data_out[105] 0.0103112
4 la_data_out[104] la_data_out[106] 0.000856613
5 la_data_out[104] la_data_out[96] 2.99518e-06
6 la_data_out[104] *255:17 0.000737473
7 la_data_out[100] la_data_out[104] 3.99277e-06
8 la_data_out[103] la_data_out[104] 0.0106125
*RES
1 *267:la_data_out[104] la_data_out[104] 29.7951 
*END

*D_NET *135 0.025535
*CONN
*P la_data_out[105] O
*I *267:la_data_out[105] O *D user_proj_example
*CAP
1 la_data_out[105] 0.00257392
2 *267:la_data_out[105] 0.00257392
3 la_data_out[105] la_data_out[106] 0.000268271
4 la_data_out[105] la_data_out[107] 0.00102418
5 la_data_out[105] la_data_out[108] 0.00624658
6 la_data_out[105] la_data_out[111] 0.000822105
7 la_data_out[105] *255:17 9.9514e-05
8 la_data_out[100] la_data_out[105] 0.0016153
9 la_data_out[104] la_data_out[105] 0.0103112
*RES
1 *267:la_data_out[105] la_data_out[105] 29.1472 
*END

*D_NET *136 0.0258268
*CONN
*P la_data_out[106] O
*I *267:la_data_out[106] O *D user_proj_example
*CAP
1 la_data_out[106] 0.00264939
2 *267:la_data_out[106] 0.00264939
3 la_data_out[106] la_data_out[109] 0.00606051
4 la_data_out[106] la_data_out[111] 0.00144924
5 la_data_out[101] la_data_out[106] 0.00381697
6 la_data_out[102] la_data_out[106] 0.00100048
7 la_data_out[103] la_data_out[106] 0.00707595
8 la_data_out[104] la_data_out[106] 0.000856613
9 la_data_out[105] la_data_out[106] 0.000268271
*RES
1 *267:la_data_out[106] la_data_out[106] 29.4992 
*END

*D_NET *137 0.0197866
*CONN
*P la_data_out[107] O
*I *267:la_data_out[107] O *D user_proj_example
*CAP
1 la_data_out[107] 0.0045973
2 *267:la_data_out[107] 0.0045973
3 la_data_out[107] la_data_out[108] 0.00928681
4 la_data_out[107] la_data_out[112] 0
5 la_data_out[107] la_data_out[113] 0
6 la_data_out[100] la_data_out[107] 0.000281
7 la_data_out[105] la_data_out[107] 0.00102418
*RES
1 *267:la_data_out[107] la_data_out[107] 29.0284 
*END

*D_NET *138 0.0236152
*CONN
*P la_data_out[108] O
*I *267:la_data_out[108] O *D user_proj_example
*CAP
1 la_data_out[108] 0.00268184
2 *267:la_data_out[108] 0.00268184
3 la_data_out[108] la_data_out[111] 0.00264223
4 la_data_out[108] la_data_out[112] 0
5 la_data_out[108] la_data_out[114] 7.58589e-05
6 la_data_out[105] la_data_out[108] 0.00624658
7 la_data_out[107] la_data_out[108] 0.00928681
*RES
1 *267:la_data_out[108] la_data_out[108] 28.6206 
*END

*D_NET *139 0.0184766
*CONN
*P la_data_out[109] O
*I *267:la_data_out[109] O *D user_proj_example
*CAP
1 la_data_out[109] 0.00437084
2 *267:la_data_out[109] 0.00437084
3 la_data_out[109] la_data_out[111] 0.000509495
4 la_data_out[109] la_data_out[113] 0.00316493
5 la_data_out[106] la_data_out[109] 0.00606051
*RES
1 *267:la_data_out[109] la_data_out[109] 29.5246 
*END

*D_NET *140 0.0609243
*CONN
*P la_data_out[10] O
*I *267:la_data_out[10] O *D user_proj_example
*CAP
1 la_data_out[10] 0.000300924
2 *267:la_data_out[10] 0.00596802
3 *140:19 0.00871069
4 *140:17 0.0143778
5 la_data_out[10] *173:23 0
6 la_data_out[10] *182:17 0
7 *140:17 *151:17 0.0107957
8 *140:17 *151:19 0.000425775
9 *140:17 *160:11 0.00112406
10 *140:17 *166:11 0.000382746
11 *140:17 *168:13 0
12 *140:19 la_data_out[11] 0.00215765
13 *140:19 *151:19 0.0129692
14 *140:19 *166:11 0.000260547
15 *140:19 *167:17 0.000634923
16 *140:19 *169:17 0.000444004
17 *140:19 *172:17 0.000444004
18 *140:19 *175:13 0.00192829
19 *1:9 *140:17 0
*RES
1 *267:la_data_out[10] *140:17 32.212 
2 *140:17 *140:19 216.42 
3 *140:19 la_data_out[10] 6.515 
*END

*D_NET *141 0.0138398
*CONN
*P la_data_out[110] O
*I *267:la_data_out[110] O *D user_proj_example
*CAP
1 la_data_out[110] 0.00691992
2 *267:la_data_out[110] 0.00691992
3 la_data_out[110] la_data_out[112] 0
*RES
1 *267:la_data_out[110] la_data_out[110] 26.5855 
*END

*D_NET *142 0.0177505
*CONN
*P la_data_out[111] O
*I *267:la_data_out[111] O *D user_proj_example
*CAP
1 la_data_out[111] 0.00340287
2 *267:la_data_out[111] 0.00340287
3 la_data_out[111] la_data_out[112] 0
4 la_data_out[111] la_data_out[113] 0.00101753
5 la_data_out[111] la_data_out[114] 0.00450414
6 la_data_out[105] la_data_out[111] 0.000822105
7 la_data_out[106] la_data_out[111] 0.00144924
8 la_data_out[108] la_data_out[111] 0.00264223
9 la_data_out[109] la_data_out[111] 0.000509495
*RES
1 *267:la_data_out[111] la_data_out[111] 27.3387 
*END

*D_NET *143 0.0126313
*CONN
*P la_data_out[112] O
*I *267:la_data_out[112] O *D user_proj_example
*CAP
1 la_data_out[112] 0.00602544
2 *267:la_data_out[112] 0.00602544
3 la_data_out[112] la_data_out[117] 0.000580397
4 la_data_out[107] la_data_out[112] 0
5 la_data_out[108] la_data_out[112] 0
6 la_data_out[110] la_data_out[112] 0
7 la_data_out[111] la_data_out[112] 0
*RES
1 *267:la_data_out[112] la_data_out[112] 26.8726 
*END

*D_NET *144 0.0217641
*CONN
*P la_data_out[113] O
*I *267:la_data_out[113] O *D user_proj_example
*CAP
1 la_data_out[113] 0.00246337
2 *267:la_data_out[113] 0.00246337
3 la_data_out[113] la_data_out[114] 0.00760604
4 la_data_out[113] la_data_out[115] 0.00101931
5 la_data_out[113] la_data_out[116] 0.00402953
6 la_data_out[107] la_data_out[113] 0
7 la_data_out[109] la_data_out[113] 0.00316493
8 la_data_out[111] la_data_out[113] 0.00101753
*RES
1 *267:la_data_out[113] la_data_out[113] 27.2712 
*END

*D_NET *145 0.0192637
*CONN
*P la_data_out[114] O
*I *267:la_data_out[114] O *D user_proj_example
*CAP
1 la_data_out[114] 0.00310982
2 *267:la_data_out[114] 0.00310982
3 la_data_out[114] la_data_out[116] 0.000857981
4 la_data_out[108] la_data_out[114] 7.58589e-05
5 la_data_out[111] la_data_out[114] 0.00450414
6 la_data_out[113] la_data_out[114] 0.00760604
*RES
1 *267:la_data_out[114] la_data_out[114] 26.9101 
*END

*D_NET *146 0.0157643
*CONN
*P la_data_out[115] O
*I *267:la_data_out[115] O *D user_proj_example
*CAP
1 la_data_out[115] 0.00396556
2 *267:la_data_out[115] 0.00396556
3 la_data_out[115] la_data_out[116] 0.00681391
4 la_data_out[113] la_data_out[115] 0.00101931
*RES
1 *267:la_data_out[115] la_data_out[115] 27.7576 
*END

*D_NET *147 0.0175956
*CONN
*P la_data_out[116] O
*I *267:la_data_out[116] O *D user_proj_example
*CAP
1 la_data_out[116] 0.00294711
2 *267:la_data_out[116] 0.00294711
3 la_data_out[113] la_data_out[116] 0.00402953
4 la_data_out[114] la_data_out[116] 0.000857981
5 la_data_out[115] la_data_out[116] 0.00681391
*RES
1 *267:la_data_out[116] la_data_out[116] 25.9213 
*END

*D_NET *148 0.017295
*CONN
*P la_data_out[117] O
*I *267:la_data_out[117] O *D user_proj_example
*CAP
1 la_data_out[117] 0.00281652
2 *267:la_data_out[117] 0.00281652
3 la_data_out[117] la_data_out[118] 0.0064245
4 la_data_out[117] la_data_out[119] 0.00465702
5 la_data_out[112] la_data_out[117] 0.000580397
*RES
1 *267:la_data_out[117] la_data_out[117] 24.7167 
*END

*D_NET *149 0.0141258
*CONN
*P la_data_out[118] O
*I *267:la_data_out[118] O *D user_proj_example
*CAP
1 la_data_out[118] 0.00341896
2 *267:la_data_out[118] 0.00341896
3 la_data_out[118] la_data_out[119] 0.000863356
4 la_data_out[117] la_data_out[118] 0.0064245
*RES
1 *267:la_data_out[118] la_data_out[118] 23.9638 
*END

*D_NET *150 0.0163306
*CONN
*P la_data_out[119] O
*I *267:la_data_out[119] O *D user_proj_example
*CAP
1 la_data_out[119] 0.00242941
2 *267:la_data_out[119] 0.00242941
3 la_data_out[119] la_data_out[120] 0.00595144
4 la_data_out[117] la_data_out[119] 0.00465702
5 la_data_out[118] la_data_out[119] 0.000863356
*RES
1 *267:la_data_out[119] la_data_out[119] 23.2692 
*END

*D_NET *151 0.0726728
*CONN
*P la_data_out[11] O
*I *267:la_data_out[11] O *D user_proj_example
*CAP
1 la_data_out[11] 0.00111069
2 *267:la_data_out[11] 0.00233089
3 *151:19 0.00929461
4 *151:17 0.0105148
5 la_data_out[11] *172:21 0.0011793
6 la_data_out[11] *172:25 0.00164304
7 la_data_out[11] *173:23 0
8 la_data_out[11] *173:27 8.03844e-05
9 la_data_out[11] *175:13 0.000535673
10 la_data_out[11] *177:21 0
11 *151:17 *160:11 0.00892805
12 *151:19 *167:17 0.000746724
13 *151:19 *168:13 0.000370857
14 *151:19 *169:17 0.00158339
15 *151:19 *172:17 0.00158337
16 *151:19 *172:21 0.00341555
17 *151:19 *175:13 0.00300718
18 *1:9 *151:17 0
19 *140:17 *151:17 0.0107957
20 *140:17 *151:19 0.000425775
21 *140:19 la_data_out[11] 0.00215765
22 *140:19 *151:19 0.0129692
*RES
1 *267:la_data_out[11] *151:17 26.3173 
2 *151:17 *151:19 217.283 
3 *151:19 la_data_out[11] 39.6725 
*END

*D_NET *152 0.0164048
*CONN
*P la_data_out[120] O
*I *267:la_data_out[120] O *D user_proj_example
*CAP
1 la_data_out[120] 0.00222031
2 *267:la_data_out[120] 0.00222031
3 la_data_out[120] la_data_out[121] 0.00563665
4 la_data_out[120] la_data_out[124] 0.000376045
5 la_data_out[119] la_data_out[120] 0.00595144
*RES
1 *267:la_data_out[120] la_data_out[120] 22.6329 
*END

*D_NET *153 0.0130799
*CONN
*P la_data_out[121] O
*I *267:la_data_out[121] O *D user_proj_example
*CAP
1 la_data_out[121] 0.00270898
2 *267:la_data_out[121] 0.00270898
3 la_data_out[121] la_data_out[122] 0.000563298
4 la_data_out[121] la_data_out[123] 0.00146201
5 la_data_out[121] la_data_out[125] 0
6 la_data_out[120] la_data_out[121] 0.00563665
*RES
1 *267:la_data_out[121] la_data_out[121] 22.1668 
*END

*D_NET *154 0.0124468
*CONN
*P la_data_out[122] O
*I *267:la_data_out[122] O *D user_proj_example
*CAP
1 la_data_out[122] 0.0035051
2 *267:la_data_out[122] 0.0035051
3 la_data_out[122] la_data_out[123] 0.00487327
4 la_data_out[121] la_data_out[122] 0.000563298
*RES
1 *267:la_data_out[122] la_data_out[122] 21.3998 
*END

*D_NET *155 0.0121746
*CONN
*P la_data_out[123] O
*I *267:la_data_out[123] O *D user_proj_example
*CAP
1 la_data_out[123] 0.00291967
2 *267:la_data_out[123] 0.00291967
3 la_data_out[121] la_data_out[123] 0.00146201
4 la_data_out[122] la_data_out[123] 0.00487327
*RES
1 *267:la_data_out[123] la_data_out[123] 20.9861 
*END

*D_NET *156 0.00999968
*CONN
*P la_data_out[124] O
*I *267:la_data_out[124] O *D user_proj_example
*CAP
1 la_data_out[124] 0.0033967
2 *267:la_data_out[124] 0.0033967
3 la_data_out[124] la_data_out[125] 0.00205085
4 la_data_out[124] la_data_out[127] 0.000779392
5 la_data_out[120] la_data_out[124] 0.000376045
*RES
1 *267:la_data_out[124] la_data_out[124] 22.3116 
*END

*D_NET *157 0.0128066
*CONN
*P la_data_out[125] O
*I *267:la_data_out[125] O *D user_proj_example
*CAP
1 la_data_out[125] 0.00220193
2 *267:la_data_out[125] 0.00220193
3 la_data_out[125] la_data_out[126] 0.00407625
4 la_data_out[125] la_data_out[127] 0.0022756
5 la_data_out[121] la_data_out[125] 0
6 la_data_out[124] la_data_out[125] 0.00205085
*RES
1 *267:la_data_out[125] la_data_out[125] 22.5372 
*END

*D_NET *158 0.0102291
*CONN
*P la_data_out[126] O
*I *267:la_data_out[126] O *D user_proj_example
*CAP
1 la_data_out[126] 0.00268855
2 *267:la_data_out[126] 0.00268855
3 la_data_out[126] la_data_out[127] 0.000775721
4 la_data_out[125] la_data_out[126] 0.00407625
*RES
1 *267:la_data_out[126] la_data_out[126] 22.9798 
*END

*D_NET *159 0.00904025
*CONN
*P la_data_out[127] O
*I *267:la_data_out[127] O *D user_proj_example
*CAP
1 la_data_out[127] 0.00260477
2 *267:la_data_out[127] 0.00260477
3 la_data_out[124] la_data_out[127] 0.000779392
4 la_data_out[125] la_data_out[127] 0.0022756
5 la_data_out[126] la_data_out[127] 0.000775721
*RES
1 *267:la_data_out[127] la_data_out[127] 21.2069 
*END

*D_NET *160 0.0892405
*CONN
*P la_data_out[12] O
*I *267:la_data_out[12] O *D user_proj_example
*CAP
1 la_data_out[12] 0.000407462
2 *267:la_data_out[12] 0.000308792
3 *160:11 0.00674802
4 *160:9 0.00664935
5 *160:11 *161:11 0.037088
6 *160:11 *166:11 0.0279868
7 *1:9 *160:11 0
8 *140:17 *160:11 0.00112406
9 *151:17 *160:11 0.00892805
*RES
1 *267:la_data_out[12] *160:9 5.945 
2 *160:9 *160:11 57.6637 
3 *160:11 la_data_out[12] 6.6725 
*END

*D_NET *161 0.0889076
*CONN
*P la_data_out[13] O
*I *267:la_data_out[13] O *D user_proj_example
*CAP
1 la_data_out[13] 0.000438941
2 *267:la_data_out[13] 0.000261944
3 *161:11 0.00659469
4 *161:9 0.00641769
5 la_data_out[13] *176:17 0
6 *161:11 *162:11 0.0368458
7 *161:11 *166:11 0.000865364
8 *1:9 *161:11 0.000395239
9 *160:11 *161:11 0.037088
*RES
1 *267:la_data_out[13] *161:9 5.09 
2 *161:9 *161:11 57.3141 
3 *161:11 la_data_out[13] 7.1825 
*END

*D_NET *162 0.0881329
*CONN
*P la_data_out[14] O
*I *267:la_data_out[14] O *D user_proj_example
*CAP
1 la_data_out[14] 0.000419359
2 *267:la_data_out[14] 0.000215097
3 *162:11 0.0064254
4 *162:9 0.00622114
5 la_data_out[14] *176:25 0.000180308
6 la_data_out[14] *185:19 0
7 *162:11 *163:11 0.0366367
8 *162:11 *166:11 0.000655179
9 *1:9 *162:11 0.000533975
10 *161:11 *162:11 0.0368458
*RES
1 *267:la_data_out[14] *162:9 4.235 
2 *162:9 *162:11 56.9063 
3 *162:11 la_data_out[14] 7.6925 
*END

*D_NET *163 0.0875991
*CONN
*P la_data_out[15] O
*I *267:la_data_out[15] O *D user_proj_example
*CAP
1 la_data_out[15] 0.000399323
2 *267:la_data_out[15] 0.00016825
3 *163:11 0.00628083
4 *163:9 0.00604976
5 la_data_out[15] *180:19 0
6 la_data_out[15] *186:17 0.000399608
7 *163:11 *164:11 0.0363537
8 *163:11 *166:11 0.00050833
9 *1:9 *163:11 0.000802643
10 *162:11 *163:11 0.0366367
*RES
1 *267:la_data_out[15] *163:9 3.38 
2 *163:9 *163:11 56.6149 
3 *163:11 la_data_out[15] 8.2025 
*END

*D_NET *164 0.0869545
*CONN
*P la_data_out[16] O
*I *267:la_data_out[16] O *D user_proj_example
*CAP
1 la_data_out[16] 0.000525212
2 *267:la_data_out[16] 0.000140158
3 *164:11 0.0064858
4 *164:9 0.00610075
5 la_data_out[16] *187:23 0
6 *164:11 *165:11 0.035875
7 *164:11 *166:11 0.00033452
8 *1:9 *164:11 0.00113929
9 *163:11 *164:11 0.0363537
*RES
1 *267:la_data_out[16] *164:9 2.87 
2 *164:9 *164:11 56.1488 
3 *164:11 la_data_out[16] 8.7125 
*END

*D_NET *165 0.086454
*CONN
*P la_data_out[17] O
*I *267:la_data_out[17] O *D user_proj_example
*CAP
1 la_data_out[17] 0.000565724
2 *267:la_data_out[17] 0.00017117
3 *165:11 0.00655476
4 *165:9 0.0061602
5 *165:11 *166:11 0
6 *165:11 *167:19 0.000426047
7 *165:11 *170:21 0.0255353
8 *1:9 *165:11 0.0111657
9 *164:11 *165:11 0.035875
*RES
1 *267:la_data_out[17] *165:9 3.395 
2 *165:9 *165:11 55.5079 
3 *165:11 la_data_out[17] 9.2225 
*END

*D_NET *166 0.0652608
*CONN
*P la_data_out[18] O
*I *267:la_data_out[18] O *D user_proj_example
*CAP
1 la_data_out[18] 0.000388553
2 *267:la_data_out[18] 0.000375751
3 *166:11 0.0100974
4 *166:9 0.0100846
5 la_data_out[18] *183:17 0
6 *166:11 la_data_out[26] 0.00203199
7 *166:11 *167:17 0.00100698
8 *166:11 *168:13 0
9 *166:11 *169:17 0.000841621
10 *166:11 *170:17 0
11 *166:11 *170:21 0
12 *166:11 *172:17 0.00121075
13 *166:11 *173:27 0.000663186
14 *166:11 *175:13 0.00478605
15 *166:11 *176:27 0.0012906
16 *166:11 *178:27 0.00148985
17 *140:17 *166:11 0.000382746
18 *140:19 *166:11 0.000260547
19 *160:11 *166:11 0.0279868
20 *161:11 *166:11 0.000865364
21 *162:11 *166:11 0.000655179
22 *163:11 *166:11 0.00050833
23 *164:11 *166:11 0.00033452
24 *165:11 *166:11 0
*RES
1 *267:la_data_out[18] *166:9 6.455 
2 *166:9 *166:11 55.0417 
3 *166:11 la_data_out[18] 6.1625 
*END

*D_NET *167 0.0917353
*CONN
*P la_data_out[19] O
*I *267:la_data_out[19] O *D user_proj_example
*CAP
1 la_data_out[19] 0.000626575
2 *267:la_data_out[19] 0.00185338
3 *167:19 0.00699102
4 *167:17 0.00821783
5 *167:17 *168:13 2.55692e-05
6 *167:17 *169:17 0.00146722
7 *167:17 *170:17 0
8 *167:17 *179:13 0.000454079
9 *167:17 *201:13 6.08626e-05
10 *167:19 *169:21 0.0289726
11 *167:19 *170:21 0.0276842
12 *167:19 *171:27 0.00644581
13 *167:19 *256:6 0.00196071
14 *1:9 *167:19 0.00416073
15 *140:19 *167:17 0.000634923
16 *151:19 *167:17 0.000746724
17 *165:11 *167:19 0.000426047
18 *166:11 *167:17 0.00100698
*RES
1 *267:la_data_out[19] *167:17 20.5941 
2 *167:17 *167:19 49.7977 
3 *167:19 la_data_out[19] 10.2425 
*END

*D_NET *168 0.0759698
*CONN
*P la_data_out[1] O
*I *267:la_data_out[1] O *D user_proj_example
*CAP
1 la_data_out[1] 0.000101757
2 *267:la_data_out[1] 0.000477255
3 *168:19 0.00252228
4 *168:17 0.00262939
5 *168:13 0.0120247
6 *168:9 0.0122931
7 *168:13 *179:13 0.0308688
8 *168:19 *179:19 0.00786582
9 *168:19 *201:19 0.00443269
10 *168:19 *245:11 0.00235759
11 *140:17 *168:13 0
12 *151:19 *168:13 0.000370857
13 *166:11 *168:13 0
14 *167:17 *168:13 2.55692e-05
*RES
1 *267:la_data_out[1] *168:9 8.99 
2 *168:9 *168:13 49.0741 
3 *168:13 *168:17 5.0375 
4 *168:17 *168:19 84.285 
5 *168:19 la_data_out[1] 2.975 
*END

*D_NET *169 0.0782189
*CONN
*P la_data_out[20] O
*I *267:la_data_out[20] O *D user_proj_example
*CAP
1 la_data_out[20] 0.000664211
2 *267:la_data_out[20] 0.00251463
3 *169:21 0.010623
4 *169:17 0.0124734
5 la_data_out[20] *191:17 0
6 *169:17 *170:17 0.00193945
7 *169:17 *172:17 0
8 *169:17 *201:13 0.000563298
9 *169:21 la_data_out[32] 0.000807081
10 *169:21 *170:21 0.000778476
11 *169:21 *171:27 0.000250485
12 *169:21 *256:6 0.014296
13 *140:19 *169:17 0.000444004
14 *151:19 *169:17 0.00158339
15 *166:11 *169:17 0.000841621
16 *167:17 *169:17 0.00146722
17 *167:19 *169:21 0.0289726
*RES
1 *267:la_data_out[20] *169:17 24.9209 
2 *169:17 *169:21 47.0348 
3 *169:21 la_data_out[20] 10.2525 